
**** 11/24/20 12:58:28 ******* PSpice Lite (March 2016) ******* ID# 10813 ****

 ** Profile: "SCHEMATIC1-ACsweep"  [ D:\Orcad\lab2\lab2-pspicefiles\schematic1\acsweep.sim ] 


 ****     CIRCUIT DESCRIPTION


******************************************************************************




** Creating circuit file "ACsweep.cir" 
** WARNING: THIS AUTOMATICALLY GENERATED FILE MAY BE OVERWRITTEN BY SUBSEQUENT SIMULATIONS

*Libraries: 
* Profile Libraries :
.INC "D:\Orcad\lab2\lab2-pspicefiles\schematic1\ACsweep\ACsweep_profile.inc" 
* Local Libraries :

**** INCLUDING ACsweep_profile.inc ****
.STMLIB ".\dcsweep.stl" 

**** RESUMING ACsweep.cir ****
.INC "../../../clip.inc" 
* From [PSPICE NETLIST] section of C:\Users\bohda\AppData\Roaming\SPB_Data\cdssetup\OrCAD_PSpice\17.2.0\PSpice.ini file:

**** INCLUDING clip.inc ****
.PRINT DC I(D_D2) V([Mid]) V(D_D2)

**** RESUMING ACsweep.cir ****
.lib "nomd.lib" 

*Analysis directives: 
.AC DEC 11 10 100M
--------------$
ERROR(ORPSIM-16103): Invalid value
.OPTIONS ADVCONV
.PROBE64 V(alias(*)) I(alias(*)) W(alias(*)) D(alias(*)) NOISE(alias(*)) 
.INC "..\SCHEMATIC1.net" 



**** INCLUDING SCHEMATIC1.net ****
* source LAB2
R_R2         MID VCC  3.3k TC=0,0 
R_R3         0 MID  3.3k TC=0,0 
R_R4         0 OUT  5.5k TC=0,0 
C_C1         MID OUT  0.47u  TC=0,0 
D_D1         MID VCC D1N3940 
D_D2         0 ICB D1N3940 
R_R1         IN MID  1k TC=0,0 
V_V1         VCC 0 5V
V_PRINT1         MID ICB 0V
         
.PRINT        DC I(V_PRINT1) 
          
.PRINT         DC V([MID]) 
          
.PRINT         DC V([0],[ICB]) 
V_V2         N04672 0   STIMULUS=Sin
V_Vin         IN N04672 DC 0Vdc AC 1V 

**** RESUMING ACsweep.cir ****
.END
