
**** 12/22/20 20:58:55 ******* PSpice Lite (March 2016) ******* ID# 10813 ****

 ** Profile: "SCHEMATIC1-Monte-Carlo"  [ D:\Orcad\lab4\press_sensor-pspicefiles\schematic1\monte-carlo.sim ] 


 ****     CIRCUIT DESCRIPTION


******************************************************************************




** Creating circuit file "Monte-Carlo.cir" 
** WARNING: THIS AUTOMATICALLY GENERATED FILE MAY BE OVERWRITTEN BY SUBSEQUENT SIMULATIONS

*Libraries: 
* Profile Libraries :
* Local Libraries :
.LIB "../../../press_sensor-pspicefiles/press_sensor.lib" 
* From [PSPICE NETLIST] section of C:\Users\bohda\AppData\Roaming\SPB_Data\cdssetup\OrCAD_PSpice\17.2.0\PSpice.ini file:
.lib "nomd.lib" 

*Analysis directives: 
.DC LIN PARAM P 0 5 0.1 
.MC 10 DC I(V_Meter) YMAX OUTPUT ALL 
.OPTIONS ADVCONV
.PROBE64 V(alias(*)) I(alias(*)) W(alias(*)) D(alias(*)) NOISE(alias(*)) 
.INC "..\SCHEMATIC1.net" 



**** INCLUDING SCHEMATIC1.net ****
* source PRESS_SENSOR
R_R5         N00285 N00281  2k TC=0,0 
R_R6         N00206 0  470 TC=0,0 
R_R7         N00199 N00206  25 TC=0,0 
R_R1         N00267 N00206 Rmonte1 1k
R_R2         N00285 N00206 Rmonte1 1k
R_R3         0 N00285 RTherm {1k*(1+P*Pcoeff/Pnom)}
R_R4         0 N00267 Rmonte1 1k
V_V1         N00199 0 DC 1.35V  
V_Meter         N00267 N00281   
.PARAM  pcoeff=-0.06 p=0 pnom=1

**** RESUMING Monte-Carlo.cir ****
.END

WARNING(ORPSIM-15223): Library file D:\Orcad\lab4\press_sensor-pspicefiles\press_sensor.lib has changed since index file press_sensor.ind was created.

WARNING(ORPSIM-15227): The timestamp changed from Wed Dec 02 15:49:20 2020 to Tue Dec 22 20:44:02 2020.

INFO(ORPSIM-15422): Making new index file press_sensor.ind for library file press_sensor.lib.

Index has 2 entries from 1 file(s).

**** 12/22/20 20:58:55 ******* PSpice Lite (March 2016) ******* ID# 10813 ****

 ** Profile: "SCHEMATIC1-Monte-Carlo"  [ D:\Orcad\lab4\press_sensor-pspicefiles\schematic1\monte-carlo.sim ] 


 ****     Resistor MODEL PARAMETERS


******************************************************************************




               Rmonte1         RTherm          
           R    1.000000E+03    1            


**** 12/22/20 20:58:55 ******* PSpice Lite (March 2016) ******* ID# 10813 ****

 ** Profile: "SCHEMATIC1-Monte-Carlo"  [ D:\Orcad\lab4\press_sensor-pspicefiles\schematic1\monte-carlo.sim ] 


 ****     SORTED DEVIATIONS OF I(V_Meter)  TEMPERATURE =   27.000 DEG C

                      MONTE CARLO SUMMARY

******************************************************************************





Mean Deviation =   10.4470E-09
Sigma          =   80.1120E-09

 RUN                    MAX DEVIATION FROM NOMINAL

Pass    7            135.5600E-09  (1.69 sigma)  higher  at P =    5     
                        ( 110.65% of Nominal)

Pass    6            104.5100E-09  (1.30 sigma)  higher  at P =    5     
                        ( 108.21% of Nominal)

Pass    9             93.6270E-09  (1.17 sigma)  lower  at P =    5     
                        (  92.646% of Nominal)

Pass   10             89.8800E-09  (1.12 sigma)  lower  at P =    5     
                        (  92.94 % of Nominal)

Pass    3             74.9550E-09  ( .94 sigma)  lower  at P =    5     
                        (  94.112% of Nominal)

Pass    2             70.7720E-09  ( .88 sigma)  higher  at P =    5     
                        ( 105.56% of Nominal)

Pass    8             37.9900E-09  ( .47 sigma)  higher  at P =    5     
                        ( 102.98% of Nominal)

Pass    4             18.0050E-09  ( .22 sigma)  higher  at P =    5     
                        ( 101.41% of Nominal)

Pass    5             14.3510E-09  ( .18 sigma)  lower  at P =    5     
                        (  98.873% of Nominal)



          JOB CONCLUDED

**** 12/22/20 20:58:55 ******* PSpice Lite (March 2016) ******* ID# 10813 ****

 ** Profile: "SCHEMATIC1-Monte-Carlo"  [ D:\Orcad\lab4\press_sensor-pspicefiles\schematic1\monte-carlo.sim ] 


 ****     JOB STATISTICS SUMMARY


******************************************************************************



  Total job time (using Solver 1)   =         .83
