
**** 12/30/20 12:40:34 ******* PSpice Lite (March 2016) ******* ID# 10813 ****

 ** Profile: "SCHEMATIC1-Monte-Carlo"  [ D:\Orcad\lab4\chebishev-pspicefiles\schematic1\monte-carlo.sim ] 


 ****     CIRCUIT DESCRIPTION


******************************************************************************




** Creating circuit file "Monte-Carlo.cir" 
** WARNING: THIS AUTOMATICALLY GENERATED FILE MAY BE OVERWRITTEN BY SUBSEQUENT SIMULATIONS

*Libraries: 
* Profile Libraries :
* Local Libraries :
.LIB "../../../chebishev-pspicefiles/chebishev.lib" 
* From [PSPICE NETLIST] section of C:\Users\bohda\AppData\Roaming\SPB_Data\cdssetup\OrCAD_PSpice\17.2.0\PSpice.ini file:
.lib "nomd.lib" 

*Analysis directives: 
.AC DEC 50 100 1Meg
.MC 100 AC V([OUT]) YMAX OUTPUT ALL 
.OPTIONS ADVCONV
.PROBE64 V(alias(*)) I(alias(*)) W(alias(*)) D(alias(*)) NOISE(alias(*)) 
.INC "..\SCHEMATIC1.net" 



**** INCLUDING SCHEMATIC1.net ****
* source CHEBISHEV
V_V1         V- 0 DC -15V  
V_V2         V+ 0 DC +15V  
V_V3         N00371 0  AC 1V 
R_R1         N00371 N00403 RMOD 6.34k
R_R2         0 N00403 RMOD 93.1
R_R3         N00729 N00652 RMOD 18.2k
R_R4         N00884 N00729 RMOD 6.34k
R_R5         N00884 0 RMOD 110
R_R6         N00933 OUT RMOD 22.1k
C_C1         N00403 N00652 CMOD 10n 
C_C2         N00884 N00933 CMOD 10n 
C_C3         N00403 N00729 CMOD 10n 
C_C4         N00884 OUT CMOD 10n 
X_U1A         0 N00652 V+ V- N00729 LT1013/LT
X_U1B         0 N00933 V+ V- OUT LT1013/LT

**** RESUMING Monte-Carlo.cir ****
.END

**** 12/30/20 12:40:34 ******* PSpice Lite (March 2016) ******* ID# 10813 ****

 ** Profile: "SCHEMATIC1-Monte-Carlo"  [ D:\Orcad\lab4\chebishev-pspicefiles\schematic1\monte-carlo.sim ] 


 ****     Diode MODEL PARAMETERS


******************************************************************************




               X_U1A.X_LT1013.DX 
          IS  800.000000E-18 


               X_U1B.X_LT1013.DX 
          IS  800.000000E-18 


**** 12/30/20 12:40:34 ******* PSpice Lite (March 2016) ******* ID# 10813 ****

 ** Profile: "SCHEMATIC1-Monte-Carlo"  [ D:\Orcad\lab4\chebishev-pspicefiles\schematic1\monte-carlo.sim ] 


 ****     BJT MODEL PARAMETERS


******************************************************************************




               X_U1A.X_LT1013.QM1 
               PNP             
       LEVEL    1            
          IS  800.000000E-18 
          BF  397.4          
          NF    1            
          BR    1            
          NR    1            
         ISS    0            
          RE    0            
          RC    0            
         CJE    0            
         VJE     .75         
         CJC    0            
         VJC     .75         
         MJC     .33         
        XCJC    1            
         CJS    0            
         VJS     .75         
          KF    0            
          AF    1            
          CN    2.2          
           D     .52         


               X_U1A.X_LT1013.QM2 
               PNP             
       LEVEL    1            
          IS  801.900000E-18 
          BF  402.7          
          NF    1            
          BR    1            
          NR    1            
         ISS    0            
          RE    0            
          RC    0            
         CJE    0            
         VJE     .75         
         CJC    0            
         VJC     .75         
         MJC     .33         
        XCJC    1            
         CJS    0            
         VJS     .75         
          KF    0            
          AF    1            
          CN    2.2          
           D     .52         


               X_U1B.X_LT1013.QM1 
               PNP             
       LEVEL    1            
          IS  800.000000E-18 
          BF  397.4          
          NF    1            
          BR    1            
          NR    1            
         ISS    0            
          RE    0            
          RC    0            
         CJE    0            
         VJE     .75         
         CJC    0            
         VJC     .75         
         MJC     .33         
        XCJC    1            
         CJS    0            
         VJS     .75         
          KF    0            
          AF    1            
          CN    2.2          
           D     .52         


               X_U1B.X_LT1013.QM2 
               PNP             
       LEVEL    1            
          IS  801.900000E-18 
          BF  402.7          
          NF    1            
          BR    1            
          NR    1            
         ISS    0            
          RE    0            
          RC    0            
         CJE    0            
         VJE     .75         
         CJC    0            
         VJC     .75         
         MJC     .33         
        XCJC    1            
         CJS    0            
         VJS     .75         
          KF    0            
          AF    1            
          CN    2.2          
           D     .52         


**** 12/30/20 12:40:34 ******* PSpice Lite (March 2016) ******* ID# 10813 ****

 ** Profile: "SCHEMATIC1-Monte-Carlo"  [ D:\Orcad\lab4\chebishev-pspicefiles\schematic1\monte-carlo.sim ] 


 ****     Resistor MODEL PARAMETERS


******************************************************************************




               RMOD            
           R    1            


**** 12/30/20 12:40:34 ******* PSpice Lite (March 2016) ******* ID# 10813 ****

 ** Profile: "SCHEMATIC1-Monte-Carlo"  [ D:\Orcad\lab4\chebishev-pspicefiles\schematic1\monte-carlo.sim ] 


 ****     Capacitor MODEL PARAMETERS


******************************************************************************




               CMOD            
           C    1            


**** 12/30/20 12:40:34 ******* PSpice Lite (March 2016) ******* ID# 10813 ****

 ** Profile: "SCHEMATIC1-Monte-Carlo"  [ D:\Orcad\lab4\chebishev-pspicefiles\schematic1\monte-carlo.sim ] 


 ****     SMALL SIGNAL BIAS SOLUTION       TEMPERATURE =   27.000 DEG C

                      MONTE CARLO NOMINAL

******************************************************************************



 NODE   VOLTAGE     NODE   VOLTAGE     NODE   VOLTAGE     NODE   VOLTAGE


(   V+)   15.0000  (   V-)  -15.0000  (  OUT)-395.6E-06  (N00371)    0.0000     

(N00403)    0.0000 (N00652)-63.57E-06 (N00729)-337.0E-06 (N00884)-5.747E-06     

(N00933)-63.57E-06 (X_U1A.X_LT1013.6)-80.19E-09                                 

(X_U1A.X_LT1013.7)-342.4E-06          (X_U1A.X_LT1013.8)-342.4E-06              

(X_U1A.X_LT1013.9)    0.0000          (X_U1B.X_LT1013.6)-80.10E-09              

(X_U1B.X_LT1013.7)-396.8E-06          (X_U1B.X_LT1013.8)-396.8E-06              

(X_U1B.X_LT1013.9)    0.0000          (X_U1A.X_LT1013.10)     .6151             

(X_U1A.X_LT1013.11)  -14.9470         (X_U1A.X_LT1013.12)  -14.9470             

(X_U1A.X_LT1013.13)     .5880         (X_U1A.X_LT1013.14)     .5880             

(X_U1A.X_LT1013.53)   13.3900         (X_U1A.X_LT1013.54)  -14.3900             

(X_U1A.X_LT1013.90)-67.27E-06         (X_U1A.X_LT1013.91)   25.0000             

(X_U1A.X_LT1013.92)  -25.0000         (X_U1A.X_LT1013.99)    0.0000             

(X_U1B.X_LT1013.10)     .6151         (X_U1B.X_LT1013.11)  -14.9470             

(X_U1B.X_LT1013.12)  -14.9470         (X_U1B.X_LT1013.13)     .5880             

(X_U1B.X_LT1013.14)     .5880         (X_U1B.X_LT1013.53)   13.3900             

(X_U1B.X_LT1013.54)  -14.3900         (X_U1B.X_LT1013.90)-15.02E-06             

(X_U1B.X_LT1013.91)   25.0000         (X_U1B.X_LT1013.92)  -25.0000             

(X_U1B.X_LT1013.99)    0.0000         (X_U1A.X_LT1013.101) 5.930E-06            

(X_U1A.X_LT1013.102)-57.56E-06        (X_U1A.X_LT1013.105)  -14.6000            

(X_U1B.X_LT1013.101) 5.930E-06        (X_U1B.X_LT1013.102)-57.56E-06            

(X_U1B.X_LT1013.105)  -14.6000        




    VOLTAGE SOURCE CURRENTS
    NAME         CURRENT

    V_V1         6.799E-04
    V_V2        -6.801E-04
    V_V3         0.000E+00
    X_U1A.X_LT1013.VCMC   2.920E-11
    X_U1A.X_LT1013.VB  -8.019E-13
    X_U1A.X_LT1013.VC   1.339E-11
    X_U1A.X_LT1013.VE   1.439E-11
    X_U1A.X_LT1013.VLIM  -6.727E-08
    X_U1A.X_LT1013.VLP  -2.500E-11
    X_U1A.X_LT1013.VLN  -2.500E-11
    X_U1B.X_LT1013.VCMC   2.920E-11
    X_U1B.X_LT1013.VB  -8.010E-13
    X_U1B.X_LT1013.VC   1.339E-11
    X_U1B.X_LT1013.VE   1.439E-11
    X_U1B.X_LT1013.VLIM  -1.502E-08
    X_U1B.X_LT1013.VLP  -2.500E-11
    X_U1B.X_LT1013.VLN  -2.500E-11

    TOTAL POWER DISSIPATION   2.04E-02  WATTS


**** 12/30/20 12:40:34 ******* PSpice Lite (March 2016) ******* ID# 10813 ****

 ** Profile: "SCHEMATIC1-Monte-Carlo"  [ D:\Orcad\lab4\chebishev-pspicefiles\schematic1\monte-carlo.sim ] 


 ****     SMALL SIGNAL BIAS SOLUTION       TEMPERATURE =   27.000 DEG C

                      MONTE CARLO PASS 2

******************************************************************************



 NODE   VOLTAGE     NODE   VOLTAGE     NODE   VOLTAGE     NODE   VOLTAGE


(   V+)   15.0000  (   V-)  -15.0000  (  OUT)-396.5E-06  (N00371)    0.0000     

(N00403)    0.0000 (N00652)-63.57E-06 (N00729)-335.6E-06 (N00884)-5.683E-06     

(N00933)-63.57E-06 (X_U1A.X_LT1013.6)-80.19E-09                                 

(X_U1A.X_LT1013.7)-340.9E-06          (X_U1A.X_LT1013.8)-340.9E-06              

(X_U1A.X_LT1013.9)    0.0000          (X_U1B.X_LT1013.6)-80.10E-09              

(X_U1B.X_LT1013.7)-397.7E-06          (X_U1B.X_LT1013.8)-397.7E-06              

(X_U1B.X_LT1013.9)    0.0000          (X_U1A.X_LT1013.10)     .6151             

(X_U1A.X_LT1013.11)  -14.9470         (X_U1A.X_LT1013.12)  -14.9470             

(X_U1A.X_LT1013.13)     .5880         (X_U1A.X_LT1013.14)     .5880             

(X_U1A.X_LT1013.53)   13.3900         (X_U1A.X_LT1013.54)  -14.3900             

(X_U1A.X_LT1013.90)-66.91E-06         (X_U1A.X_LT1013.91)   25.0000             

(X_U1A.X_LT1013.92)  -25.0000         (X_U1A.X_LT1013.99)    0.0000             

(X_U1B.X_LT1013.10)     .6151         (X_U1B.X_LT1013.11)  -14.9470             

(X_U1B.X_LT1013.12)  -14.9470         (X_U1B.X_LT1013.13)     .5880             

(X_U1B.X_LT1013.14)     .5880         (X_U1B.X_LT1013.53)   13.3900             

(X_U1B.X_LT1013.54)  -14.3900         (X_U1B.X_LT1013.90)-15.02E-06             

(X_U1B.X_LT1013.91)   25.0000         (X_U1B.X_LT1013.92)  -25.0000             

(X_U1B.X_LT1013.99)    0.0000         (X_U1A.X_LT1013.101) 5.930E-06            

(X_U1A.X_LT1013.102)-57.56E-06        (X_U1A.X_LT1013.105)  -14.6000            

(X_U1B.X_LT1013.101) 5.930E-06        (X_U1B.X_LT1013.102)-57.56E-06            

(X_U1B.X_LT1013.105)  -14.6000        




    VOLTAGE SOURCE CURRENTS
    NAME         CURRENT

    V_V1         6.799E-04
    V_V2        -6.801E-04
    V_V3         0.000E+00
    X_U1A.X_LT1013.VCMC   2.920E-11
    X_U1A.X_LT1013.VB  -8.019E-13
    X_U1A.X_LT1013.VC   1.339E-11
    X_U1A.X_LT1013.VE   1.439E-11
    X_U1A.X_LT1013.VLIM  -6.691E-08
    X_U1A.X_LT1013.VLP  -2.500E-11
    X_U1A.X_LT1013.VLN  -2.500E-11
    X_U1B.X_LT1013.VCMC   2.920E-11
    X_U1B.X_LT1013.VB  -8.010E-13
    X_U1B.X_LT1013.VC   1.339E-11
    X_U1B.X_LT1013.VE   1.439E-11
    X_U1B.X_LT1013.VLIM  -1.502E-08
    X_U1B.X_LT1013.VLP  -2.500E-11
    X_U1B.X_LT1013.VLN  -2.500E-11

    TOTAL POWER DISSIPATION   2.04E-02  WATTS


**** 12/30/20 12:40:34 ******* PSpice Lite (March 2016) ******* ID# 10813 ****

 ** Profile: "SCHEMATIC1-Monte-Carlo"  [ D:\Orcad\lab4\chebishev-pspicefiles\schematic1\monte-carlo.sim ] 


 ****     SMALL SIGNAL BIAS SOLUTION       TEMPERATURE =   27.000 DEG C

                      MONTE CARLO PASS 3

******************************************************************************



 NODE   VOLTAGE     NODE   VOLTAGE     NODE   VOLTAGE     NODE   VOLTAGE


(   V+)   15.0000  (   V-)  -15.0000  (  OUT)-398.8E-06  (N00371)    0.0000     

(N00403)    0.0000 (N00652)-63.57E-06 (N00729)-338.5E-06 (N00884)-5.816E-06     

(N00933)-63.57E-06 (X_U1A.X_LT1013.6)-80.18E-09                                 

(X_U1A.X_LT1013.7)-344.0E-06          (X_U1A.X_LT1013.8)-344.0E-06              

(X_U1A.X_LT1013.9)    0.0000          (X_U1B.X_LT1013.6)-80.09E-09              

(X_U1B.X_LT1013.7)-400.0E-06          (X_U1B.X_LT1013.8)-400.0E-06              

(X_U1B.X_LT1013.9)    0.0000          (X_U1A.X_LT1013.10)     .6151             

(X_U1A.X_LT1013.11)  -14.9470         (X_U1A.X_LT1013.12)  -14.9470             

(X_U1A.X_LT1013.13)     .5880         (X_U1A.X_LT1013.14)     .5880             

(X_U1A.X_LT1013.53)   13.3900         (X_U1A.X_LT1013.54)  -14.3900             

(X_U1A.X_LT1013.90)-67.85E-06         (X_U1A.X_LT1013.91)   25.0000             

(X_U1A.X_LT1013.92)  -25.0000         (X_U1A.X_LT1013.99)    0.0000             

(X_U1B.X_LT1013.10)     .6151         (X_U1B.X_LT1013.11)  -14.9470             

(X_U1B.X_LT1013.12)  -14.9470         (X_U1B.X_LT1013.13)     .5880             

(X_U1B.X_LT1013.14)     .5880         (X_U1B.X_LT1013.53)   13.3900             

(X_U1B.X_LT1013.54)  -14.3900         (X_U1B.X_LT1013.90)-15.02E-06             

(X_U1B.X_LT1013.91)   25.0000         (X_U1B.X_LT1013.92)  -25.0000             

(X_U1B.X_LT1013.99)    0.0000         (X_U1A.X_LT1013.101) 5.930E-06            

(X_U1A.X_LT1013.102)-57.56E-06        (X_U1A.X_LT1013.105)  -14.6000            

(X_U1B.X_LT1013.101) 5.930E-06        (X_U1B.X_LT1013.102)-57.56E-06            

(X_U1B.X_LT1013.105)  -14.6000        




    VOLTAGE SOURCE CURRENTS
    NAME         CURRENT

    V_V1         6.799E-04
    V_V2        -6.801E-04
    V_V3         0.000E+00
    X_U1A.X_LT1013.VCMC   2.920E-11
    X_U1A.X_LT1013.VB  -8.018E-13
    X_U1A.X_LT1013.VC   1.339E-11
    X_U1A.X_LT1013.VE   1.439E-11
    X_U1A.X_LT1013.VLIM  -6.785E-08
    X_U1A.X_LT1013.VLP  -2.500E-11
    X_U1A.X_LT1013.VLN  -2.500E-11
    X_U1B.X_LT1013.VCMC   2.920E-11
    X_U1B.X_LT1013.VB  -8.009E-13
    X_U1B.X_LT1013.VC   1.339E-11
    X_U1B.X_LT1013.VE   1.439E-11
    X_U1B.X_LT1013.VLIM  -1.502E-08
    X_U1B.X_LT1013.VLP  -2.500E-11
    X_U1B.X_LT1013.VLN  -2.500E-11

    TOTAL POWER DISSIPATION   2.04E-02  WATTS


**** 12/30/20 12:40:34 ******* PSpice Lite (March 2016) ******* ID# 10813 ****

 ** Profile: "SCHEMATIC1-Monte-Carlo"  [ D:\Orcad\lab4\chebishev-pspicefiles\schematic1\monte-carlo.sim ] 


 ****     SMALL SIGNAL BIAS SOLUTION       TEMPERATURE =   27.000 DEG C

                      MONTE CARLO PASS 4

******************************************************************************



 NODE   VOLTAGE     NODE   VOLTAGE     NODE   VOLTAGE     NODE   VOLTAGE


(   V+)   15.0000  (   V-)  -15.0000  (  OUT)-394.2E-06  (N00371)    0.0000     

(N00403)    0.0000 (N00652)-63.57E-06 (N00729)-336.9E-06 (N00884)-5.687E-06     

(N00933)-63.57E-06 (X_U1A.X_LT1013.6)-80.19E-09                                 

(X_U1A.X_LT1013.7)-342.3E-06          (X_U1A.X_LT1013.8)-342.3E-06              

(X_U1A.X_LT1013.9)    0.0000          (X_U1B.X_LT1013.6)-80.10E-09              

(X_U1B.X_LT1013.7)-395.4E-06          (X_U1B.X_LT1013.8)-395.4E-06              

(X_U1B.X_LT1013.9)    0.0000          (X_U1A.X_LT1013.10)     .6151             

(X_U1A.X_LT1013.11)  -14.9470         (X_U1A.X_LT1013.12)  -14.9470             

(X_U1A.X_LT1013.13)     .5880         (X_U1A.X_LT1013.14)     .5880             

(X_U1A.X_LT1013.53)   13.3900         (X_U1A.X_LT1013.54)  -14.3900             

(X_U1A.X_LT1013.90)-67.02E-06         (X_U1A.X_LT1013.91)   25.0000             

(X_U1A.X_LT1013.92)  -25.0000         (X_U1A.X_LT1013.99)    0.0000             

(X_U1B.X_LT1013.10)     .6151         (X_U1B.X_LT1013.11)  -14.9470             

(X_U1B.X_LT1013.12)  -14.9470         (X_U1B.X_LT1013.13)     .5880             

(X_U1B.X_LT1013.14)     .5880         (X_U1B.X_LT1013.53)   13.3900             

(X_U1B.X_LT1013.54)  -14.3900         (X_U1B.X_LT1013.90)-15.02E-06             

(X_U1B.X_LT1013.91)   25.0000         (X_U1B.X_LT1013.92)  -25.0000             

(X_U1B.X_LT1013.99)    0.0000         (X_U1A.X_LT1013.101) 5.930E-06            

(X_U1A.X_LT1013.102)-57.56E-06        (X_U1A.X_LT1013.105)  -14.6000            

(X_U1B.X_LT1013.101) 5.930E-06        (X_U1B.X_LT1013.102)-57.56E-06            

(X_U1B.X_LT1013.105)  -14.6000        




    VOLTAGE SOURCE CURRENTS
    NAME         CURRENT

    V_V1         6.799E-04
    V_V2        -6.801E-04
    V_V3         0.000E+00
    X_U1A.X_LT1013.VCMC   2.920E-11
    X_U1A.X_LT1013.VB  -8.019E-13
    X_U1A.X_LT1013.VC   1.339E-11
    X_U1A.X_LT1013.VE   1.439E-11
    X_U1A.X_LT1013.VLIM  -6.702E-08
    X_U1A.X_LT1013.VLP  -2.500E-11
    X_U1A.X_LT1013.VLN  -2.500E-11
    X_U1B.X_LT1013.VCMC   2.920E-11
    X_U1B.X_LT1013.VB  -8.010E-13
    X_U1B.X_LT1013.VC   1.339E-11
    X_U1B.X_LT1013.VE   1.439E-11
    X_U1B.X_LT1013.VLIM  -1.502E-08
    X_U1B.X_LT1013.VLP  -2.500E-11
    X_U1B.X_LT1013.VLN  -2.500E-11

    TOTAL POWER DISSIPATION   2.04E-02  WATTS


**** 12/30/20 12:40:34 ******* PSpice Lite (March 2016) ******* ID# 10813 ****

 ** Profile: "SCHEMATIC1-Monte-Carlo"  [ D:\Orcad\lab4\chebishev-pspicefiles\schematic1\monte-carlo.sim ] 


 ****     SMALL SIGNAL BIAS SOLUTION       TEMPERATURE =   27.000 DEG C

                      MONTE CARLO PASS 5

******************************************************************************



 NODE   VOLTAGE     NODE   VOLTAGE     NODE   VOLTAGE     NODE   VOLTAGE


(   V+)   15.0000  (   V-)  -15.0000  (  OUT)-393.2E-06  (N00371)    0.0000     

(N00403)    0.0000 (N00652)-63.57E-06 (N00729)-337.1E-06 (N00884)-5.692E-06     

(N00933)-63.57E-06 (X_U1A.X_LT1013.6)-80.19E-09                                 

(X_U1A.X_LT1013.7)-342.5E-06          (X_U1A.X_LT1013.8)-342.5E-06              

(X_U1A.X_LT1013.9)    0.0000          (X_U1B.X_LT1013.6)-80.10E-09              

(X_U1B.X_LT1013.7)-394.4E-06          (X_U1B.X_LT1013.8)-394.4E-06              

(X_U1B.X_LT1013.9)    0.0000          (X_U1A.X_LT1013.10)     .6151             

(X_U1A.X_LT1013.11)  -14.9470         (X_U1A.X_LT1013.12)  -14.9470             

(X_U1A.X_LT1013.13)     .5880         (X_U1A.X_LT1013.14)     .5880             

(X_U1A.X_LT1013.53)   13.3900         (X_U1A.X_LT1013.54)  -14.3900             

(X_U1A.X_LT1013.90)-67.05E-06         (X_U1A.X_LT1013.91)   25.0000             

(X_U1A.X_LT1013.92)  -25.0000         (X_U1A.X_LT1013.99)    0.0000             

(X_U1B.X_LT1013.10)     .6151         (X_U1B.X_LT1013.11)  -14.9470             

(X_U1B.X_LT1013.12)  -14.9470         (X_U1B.X_LT1013.13)     .5880             

(X_U1B.X_LT1013.14)     .5880         (X_U1B.X_LT1013.53)   13.3900             

(X_U1B.X_LT1013.54)  -14.3900         (X_U1B.X_LT1013.90)-15.02E-06             

(X_U1B.X_LT1013.91)   25.0000         (X_U1B.X_LT1013.92)  -25.0000             

(X_U1B.X_LT1013.99)    0.0000         (X_U1A.X_LT1013.101) 5.930E-06            

(X_U1A.X_LT1013.102)-57.56E-06        (X_U1A.X_LT1013.105)  -14.6000            

(X_U1B.X_LT1013.101) 5.930E-06        (X_U1B.X_LT1013.102)-57.56E-06            

(X_U1B.X_LT1013.105)  -14.6000        




    VOLTAGE SOURCE CURRENTS
    NAME         CURRENT

    V_V1         6.799E-04
    V_V2        -6.801E-04
    V_V3         0.000E+00
    X_U1A.X_LT1013.VCMC   2.920E-11
    X_U1A.X_LT1013.VB  -8.019E-13
    X_U1A.X_LT1013.VC   1.339E-11
    X_U1A.X_LT1013.VE   1.439E-11
    X_U1A.X_LT1013.VLIM  -6.705E-08
    X_U1A.X_LT1013.VLP  -2.500E-11
    X_U1A.X_LT1013.VLN  -2.500E-11
    X_U1B.X_LT1013.VCMC   2.920E-11
    X_U1B.X_LT1013.VB  -8.010E-13
    X_U1B.X_LT1013.VC   1.339E-11
    X_U1B.X_LT1013.VE   1.439E-11
    X_U1B.X_LT1013.VLIM  -1.502E-08
    X_U1B.X_LT1013.VLP  -2.500E-11
    X_U1B.X_LT1013.VLN  -2.500E-11

    TOTAL POWER DISSIPATION   2.04E-02  WATTS


**** 12/30/20 12:40:34 ******* PSpice Lite (March 2016) ******* ID# 10813 ****

 ** Profile: "SCHEMATIC1-Monte-Carlo"  [ D:\Orcad\lab4\chebishev-pspicefiles\schematic1\monte-carlo.sim ] 


 ****     SMALL SIGNAL BIAS SOLUTION       TEMPERATURE =   27.000 DEG C

                      MONTE CARLO PASS 6

******************************************************************************



 NODE   VOLTAGE     NODE   VOLTAGE     NODE   VOLTAGE     NODE   VOLTAGE


(   V+)   15.0000  (   V-)  -15.0000  (  OUT)-393.4E-06  (N00371)    0.0000     

(N00403)    0.0000 (N00652)-63.57E-06 (N00729)-335.0E-06 (N00884)-5.635E-06     

(N00933)-63.57E-06 (X_U1A.X_LT1013.6)-80.19E-09                                 

(X_U1A.X_LT1013.7)-340.3E-06          (X_U1A.X_LT1013.8)-340.3E-06              

(X_U1A.X_LT1013.9)    0.0000          (X_U1B.X_LT1013.6)-80.10E-09              

(X_U1B.X_LT1013.7)-394.7E-06          (X_U1B.X_LT1013.8)-394.7E-06              

(X_U1B.X_LT1013.9)    0.0000          (X_U1A.X_LT1013.10)     .6151             

(X_U1A.X_LT1013.11)  -14.9470         (X_U1A.X_LT1013.12)  -14.9470             

(X_U1A.X_LT1013.13)     .5880         (X_U1A.X_LT1013.14)     .5880             

(X_U1A.X_LT1013.53)   13.3900         (X_U1A.X_LT1013.54)  -14.3900             

(X_U1A.X_LT1013.90)-66.67E-06         (X_U1A.X_LT1013.91)   25.0000             

(X_U1A.X_LT1013.92)  -25.0000         (X_U1A.X_LT1013.99)    0.0000             

(X_U1B.X_LT1013.10)     .6151         (X_U1B.X_LT1013.11)  -14.9470             

(X_U1B.X_LT1013.12)  -14.9470         (X_U1B.X_LT1013.13)     .5880             

(X_U1B.X_LT1013.14)     .5880         (X_U1B.X_LT1013.53)   13.3900             

(X_U1B.X_LT1013.54)  -14.3900         (X_U1B.X_LT1013.90)-15.02E-06             

(X_U1B.X_LT1013.91)   25.0000         (X_U1B.X_LT1013.92)  -25.0000             

(X_U1B.X_LT1013.99)    0.0000         (X_U1A.X_LT1013.101) 5.930E-06            

(X_U1A.X_LT1013.102)-57.56E-06        (X_U1A.X_LT1013.105)  -14.6000            

(X_U1B.X_LT1013.101) 5.930E-06        (X_U1B.X_LT1013.102)-57.56E-06            

(X_U1B.X_LT1013.105)  -14.6000        




    VOLTAGE SOURCE CURRENTS
    NAME         CURRENT

    V_V1         6.799E-04
    V_V2        -6.801E-04
    V_V3         0.000E+00
    X_U1A.X_LT1013.VCMC   2.920E-11
    X_U1A.X_LT1013.VB  -8.019E-13
    X_U1A.X_LT1013.VC   1.339E-11
    X_U1A.X_LT1013.VE   1.439E-11
    X_U1A.X_LT1013.VLIM  -6.667E-08
    X_U1A.X_LT1013.VLP  -2.500E-11
    X_U1A.X_LT1013.VLN  -2.500E-11
    X_U1B.X_LT1013.VCMC   2.920E-11
    X_U1B.X_LT1013.VB  -8.010E-13
    X_U1B.X_LT1013.VC   1.339E-11
    X_U1B.X_LT1013.VE   1.439E-11
    X_U1B.X_LT1013.VLIM  -1.502E-08
    X_U1B.X_LT1013.VLP  -2.500E-11
    X_U1B.X_LT1013.VLN  -2.500E-11

    TOTAL POWER DISSIPATION   2.04E-02  WATTS


**** 12/30/20 12:40:34 ******* PSpice Lite (March 2016) ******* ID# 10813 ****

 ** Profile: "SCHEMATIC1-Monte-Carlo"  [ D:\Orcad\lab4\chebishev-pspicefiles\schematic1\monte-carlo.sim ] 


 ****     SMALL SIGNAL BIAS SOLUTION       TEMPERATURE =   27.000 DEG C

                      MONTE CARLO PASS 7

******************************************************************************



 NODE   VOLTAGE     NODE   VOLTAGE     NODE   VOLTAGE     NODE   VOLTAGE


(   V+)   15.0000  (   V-)  -15.0000  (  OUT)-392.2E-06  (N00371)    0.0000     

(N00403)    0.0000 (N00652)-63.57E-06 (N00729)-334.4E-06 (N00884)-5.694E-06     

(N00933)-63.57E-06 (X_U1A.X_LT1013.6)-80.19E-09                                 

(X_U1A.X_LT1013.7)-339.8E-06          (X_U1A.X_LT1013.8)-339.8E-06              

(X_U1A.X_LT1013.9)    0.0000          (X_U1B.X_LT1013.6)-80.11E-09              

(X_U1B.X_LT1013.7)-393.4E-06          (X_U1B.X_LT1013.8)-393.4E-06              

(X_U1B.X_LT1013.9)    0.0000          (X_U1A.X_LT1013.10)     .6151             

(X_U1A.X_LT1013.11)  -14.9470         (X_U1A.X_LT1013.12)  -14.9470             

(X_U1A.X_LT1013.13)     .5880         (X_U1A.X_LT1013.14)     .5880             

(X_U1A.X_LT1013.53)   13.3900         (X_U1A.X_LT1013.54)  -14.3900             

(X_U1A.X_LT1013.90)-67.21E-06         (X_U1A.X_LT1013.91)   25.0000             

(X_U1A.X_LT1013.92)  -25.0000         (X_U1A.X_LT1013.99)    0.0000             

(X_U1B.X_LT1013.10)     .6151         (X_U1B.X_LT1013.11)  -14.9470             

(X_U1B.X_LT1013.12)  -14.9470         (X_U1B.X_LT1013.13)     .5880             

(X_U1B.X_LT1013.14)     .5880         (X_U1B.X_LT1013.53)   13.3900             

(X_U1B.X_LT1013.54)  -14.3900         (X_U1B.X_LT1013.90)-15.02E-06             

(X_U1B.X_LT1013.91)   25.0000         (X_U1B.X_LT1013.92)  -25.0000             

(X_U1B.X_LT1013.99)    0.0000         (X_U1A.X_LT1013.101) 5.930E-06            

(X_U1A.X_LT1013.102)-57.56E-06        (X_U1A.X_LT1013.105)  -14.6000            

(X_U1B.X_LT1013.101) 5.930E-06        (X_U1B.X_LT1013.102)-57.56E-06            

(X_U1B.X_LT1013.105)  -14.6000        




    VOLTAGE SOURCE CURRENTS
    NAME         CURRENT

    V_V1         6.799E-04
    V_V2        -6.801E-04
    V_V3         0.000E+00
    X_U1A.X_LT1013.VCMC   2.920E-11
    X_U1A.X_LT1013.VB  -8.019E-13
    X_U1A.X_LT1013.VC   1.339E-11
    X_U1A.X_LT1013.VE   1.439E-11
    X_U1A.X_LT1013.VLIM  -6.721E-08
    X_U1A.X_LT1013.VLP  -2.500E-11
    X_U1A.X_LT1013.VLN  -2.500E-11
    X_U1B.X_LT1013.VCMC   2.920E-11
    X_U1B.X_LT1013.VB  -8.011E-13
    X_U1B.X_LT1013.VC   1.339E-11
    X_U1B.X_LT1013.VE   1.439E-11
    X_U1B.X_LT1013.VLIM  -1.502E-08
    X_U1B.X_LT1013.VLP  -2.500E-11
    X_U1B.X_LT1013.VLN  -2.500E-11

    TOTAL POWER DISSIPATION   2.04E-02  WATTS


**** 12/30/20 12:40:34 ******* PSpice Lite (March 2016) ******* ID# 10813 ****

 ** Profile: "SCHEMATIC1-Monte-Carlo"  [ D:\Orcad\lab4\chebishev-pspicefiles\schematic1\monte-carlo.sim ] 


 ****     SMALL SIGNAL BIAS SOLUTION       TEMPERATURE =   27.000 DEG C

                      MONTE CARLO PASS 8

******************************************************************************



 NODE   VOLTAGE     NODE   VOLTAGE     NODE   VOLTAGE     NODE   VOLTAGE


(   V+)   15.0000  (   V-)  -15.0000  (  OUT)-394.8E-06  (N00371)    0.0000     

(N00403)    0.0000 (N00652)-63.57E-06 (N00729)-336.0E-06 (N00884)-5.725E-06     

(N00933)-63.57E-06 (X_U1A.X_LT1013.6)-80.19E-09                                 

(X_U1A.X_LT1013.7)-341.4E-06          (X_U1A.X_LT1013.8)-341.4E-06              

(X_U1A.X_LT1013.9)    0.0000          (X_U1B.X_LT1013.6)-80.10E-09              

(X_U1B.X_LT1013.7)-396.0E-06          (X_U1B.X_LT1013.8)-396.0E-06              

(X_U1B.X_LT1013.9)    0.0000          (X_U1A.X_LT1013.10)     .6151             

(X_U1A.X_LT1013.11)  -14.9470         (X_U1A.X_LT1013.12)  -14.9470             

(X_U1A.X_LT1013.13)     .5880         (X_U1A.X_LT1013.14)     .5880             

(X_U1A.X_LT1013.53)   13.3900         (X_U1A.X_LT1013.54)  -14.3900             

(X_U1A.X_LT1013.90)-66.73E-06         (X_U1A.X_LT1013.91)   25.0000             

(X_U1A.X_LT1013.92)  -25.0000         (X_U1A.X_LT1013.99)    0.0000             

(X_U1B.X_LT1013.10)     .6151         (X_U1B.X_LT1013.11)  -14.9470             

(X_U1B.X_LT1013.12)  -14.9470         (X_U1B.X_LT1013.13)     .5880             

(X_U1B.X_LT1013.14)     .5880         (X_U1B.X_LT1013.53)   13.3900             

(X_U1B.X_LT1013.54)  -14.3900         (X_U1B.X_LT1013.90)-15.02E-06             

(X_U1B.X_LT1013.91)   25.0000         (X_U1B.X_LT1013.92)  -25.0000             

(X_U1B.X_LT1013.99)    0.0000         (X_U1A.X_LT1013.101) 5.930E-06            

(X_U1A.X_LT1013.102)-57.56E-06        (X_U1A.X_LT1013.105)  -14.6000            

(X_U1B.X_LT1013.101) 5.930E-06        (X_U1B.X_LT1013.102)-57.56E-06            

(X_U1B.X_LT1013.105)  -14.6000        




    VOLTAGE SOURCE CURRENTS
    NAME         CURRENT

    V_V1         6.799E-04
    V_V2        -6.801E-04
    V_V3         0.000E+00
    X_U1A.X_LT1013.VCMC   2.920E-11
    X_U1A.X_LT1013.VB  -8.019E-13
    X_U1A.X_LT1013.VC   1.339E-11
    X_U1A.X_LT1013.VE   1.439E-11
    X_U1A.X_LT1013.VLIM  -6.673E-08
    X_U1A.X_LT1013.VLP  -2.500E-11
    X_U1A.X_LT1013.VLN  -2.500E-11
    X_U1B.X_LT1013.VCMC   2.920E-11
    X_U1B.X_LT1013.VB  -8.010E-13
    X_U1B.X_LT1013.VC   1.339E-11
    X_U1B.X_LT1013.VE   1.439E-11
    X_U1B.X_LT1013.VLIM  -1.502E-08
    X_U1B.X_LT1013.VLP  -2.500E-11
    X_U1B.X_LT1013.VLN  -2.500E-11

    TOTAL POWER DISSIPATION   2.04E-02  WATTS


**** 12/30/20 12:40:34 ******* PSpice Lite (March 2016) ******* ID# 10813 ****

 ** Profile: "SCHEMATIC1-Monte-Carlo"  [ D:\Orcad\lab4\chebishev-pspicefiles\schematic1\monte-carlo.sim ] 


 ****     SMALL SIGNAL BIAS SOLUTION       TEMPERATURE =   27.000 DEG C

                      MONTE CARLO PASS 9

******************************************************************************



 NODE   VOLTAGE     NODE   VOLTAGE     NODE   VOLTAGE     NODE   VOLTAGE


(   V+)   15.0000  (   V-)  -15.0000  (  OUT)-393.0E-06  (N00371)    0.0000     

(N00403)    0.0000 (N00652)-63.57E-06 (N00729)-339.0E-06 (N00884)-5.785E-06     

(N00933)-63.57E-06 (X_U1A.X_LT1013.6)-80.18E-09                                 

(X_U1A.X_LT1013.7)-344.4E-06          (X_U1A.X_LT1013.8)-344.4E-06              

(X_U1A.X_LT1013.9)    0.0000          (X_U1B.X_LT1013.6)-80.10E-09              

(X_U1B.X_LT1013.7)-394.2E-06          (X_U1B.X_LT1013.8)-394.2E-06              

(X_U1B.X_LT1013.9)    0.0000          (X_U1A.X_LT1013.10)     .6151             

(X_U1A.X_LT1013.11)  -14.9470         (X_U1A.X_LT1013.12)  -14.9470             

(X_U1A.X_LT1013.13)     .5880         (X_U1A.X_LT1013.14)     .5880             

(X_U1A.X_LT1013.53)   13.3900         (X_U1A.X_LT1013.54)  -14.3900             

(X_U1A.X_LT1013.90)-67.77E-06         (X_U1A.X_LT1013.91)   25.0000             

(X_U1A.X_LT1013.92)  -25.0000         (X_U1A.X_LT1013.99)    0.0000             

(X_U1B.X_LT1013.10)     .6151         (X_U1B.X_LT1013.11)  -14.9470             

(X_U1B.X_LT1013.12)  -14.9470         (X_U1B.X_LT1013.13)     .5880             

(X_U1B.X_LT1013.14)     .5880         (X_U1B.X_LT1013.53)   13.3900             

(X_U1B.X_LT1013.54)  -14.3900         (X_U1B.X_LT1013.90)-15.02E-06             

(X_U1B.X_LT1013.91)   25.0000         (X_U1B.X_LT1013.92)  -25.0000             

(X_U1B.X_LT1013.99)    0.0000         (X_U1A.X_LT1013.101) 5.930E-06            

(X_U1A.X_LT1013.102)-57.56E-06        (X_U1A.X_LT1013.105)  -14.6000            

(X_U1B.X_LT1013.101) 5.930E-06        (X_U1B.X_LT1013.102)-57.56E-06            

(X_U1B.X_LT1013.105)  -14.6000        




    VOLTAGE SOURCE CURRENTS
    NAME         CURRENT

    V_V1         6.799E-04
    V_V2        -6.801E-04
    V_V3         0.000E+00
    X_U1A.X_LT1013.VCMC   2.920E-11
    X_U1A.X_LT1013.VB  -8.018E-13
    X_U1A.X_LT1013.VC   1.339E-11
    X_U1A.X_LT1013.VE   1.439E-11
    X_U1A.X_LT1013.VLIM  -6.777E-08
    X_U1A.X_LT1013.VLP  -2.500E-11
    X_U1A.X_LT1013.VLN  -2.500E-11
    X_U1B.X_LT1013.VCMC   2.920E-11
    X_U1B.X_LT1013.VB  -8.010E-13
    X_U1B.X_LT1013.VC   1.339E-11
    X_U1B.X_LT1013.VE   1.439E-11
    X_U1B.X_LT1013.VLIM  -1.502E-08
    X_U1B.X_LT1013.VLP  -2.500E-11
    X_U1B.X_LT1013.VLN  -2.500E-11

    TOTAL POWER DISSIPATION   2.04E-02  WATTS


**** 12/30/20 12:40:34 ******* PSpice Lite (March 2016) ******* ID# 10813 ****

 ** Profile: "SCHEMATIC1-Monte-Carlo"  [ D:\Orcad\lab4\chebishev-pspicefiles\schematic1\monte-carlo.sim ] 


 ****     SMALL SIGNAL BIAS SOLUTION       TEMPERATURE =   27.000 DEG C

                      MONTE CARLO PASS 10

******************************************************************************



 NODE   VOLTAGE     NODE   VOLTAGE     NODE   VOLTAGE     NODE   VOLTAGE


(   V+)   15.0000  (   V-)  -15.0000  (  OUT)-396.0E-06  (N00371)    0.0000     

(N00403)    0.0000 (N00652)-63.57E-06 (N00729)-339.0E-06 (N00884)-5.726E-06     

(N00933)-63.57E-06 (X_U1A.X_LT1013.6)-80.18E-09                                 

(X_U1A.X_LT1013.7)-344.4E-06          (X_U1A.X_LT1013.8)-344.4E-06              

(X_U1A.X_LT1013.9)    0.0000          (X_U1B.X_LT1013.6)-80.10E-09              

(X_U1B.X_LT1013.7)-397.2E-06          (X_U1B.X_LT1013.8)-397.2E-06              

(X_U1B.X_LT1013.9)    0.0000          (X_U1A.X_LT1013.10)     .6151             

(X_U1A.X_LT1013.11)  -14.9470         (X_U1A.X_LT1013.12)  -14.9470             

(X_U1A.X_LT1013.13)     .5880         (X_U1A.X_LT1013.14)     .5880             

(X_U1A.X_LT1013.53)   13.3900         (X_U1A.X_LT1013.54)  -14.3900             

(X_U1A.X_LT1013.90)-67.36E-06         (X_U1A.X_LT1013.91)   25.0000             

(X_U1A.X_LT1013.92)  -25.0000         (X_U1A.X_LT1013.99)    0.0000             

(X_U1B.X_LT1013.10)     .6151         (X_U1B.X_LT1013.11)  -14.9470             

(X_U1B.X_LT1013.12)  -14.9470         (X_U1B.X_LT1013.13)     .5880             

(X_U1B.X_LT1013.14)     .5880         (X_U1B.X_LT1013.53)   13.3900             

(X_U1B.X_LT1013.54)  -14.3900         (X_U1B.X_LT1013.90)-15.02E-06             

(X_U1B.X_LT1013.91)   25.0000         (X_U1B.X_LT1013.92)  -25.0000             

(X_U1B.X_LT1013.99)    0.0000         (X_U1A.X_LT1013.101) 5.930E-06            

(X_U1A.X_LT1013.102)-57.56E-06        (X_U1A.X_LT1013.105)  -14.6000            

(X_U1B.X_LT1013.101) 5.930E-06        (X_U1B.X_LT1013.102)-57.56E-06            

(X_U1B.X_LT1013.105)  -14.6000        




    VOLTAGE SOURCE CURRENTS
    NAME         CURRENT

    V_V1         6.799E-04
    V_V2        -6.801E-04
    V_V3         0.000E+00
    X_U1A.X_LT1013.VCMC   2.920E-11
    X_U1A.X_LT1013.VB  -8.018E-13
    X_U1A.X_LT1013.VC   1.339E-11
    X_U1A.X_LT1013.VE   1.439E-11
    X_U1A.X_LT1013.VLIM  -6.736E-08
    X_U1A.X_LT1013.VLP  -2.500E-11
    X_U1A.X_LT1013.VLN  -2.500E-11
    X_U1B.X_LT1013.VCMC   2.920E-11
    X_U1B.X_LT1013.VB  -8.010E-13
    X_U1B.X_LT1013.VC   1.339E-11
    X_U1B.X_LT1013.VE   1.439E-11
    X_U1B.X_LT1013.VLIM  -1.502E-08
    X_U1B.X_LT1013.VLP  -2.500E-11
    X_U1B.X_LT1013.VLN  -2.500E-11

    TOTAL POWER DISSIPATION   2.04E-02  WATTS


**** 12/30/20 12:40:34 ******* PSpice Lite (March 2016) ******* ID# 10813 ****

 ** Profile: "SCHEMATIC1-Monte-Carlo"  [ D:\Orcad\lab4\chebishev-pspicefiles\schematic1\monte-carlo.sim ] 


 ****     SMALL SIGNAL BIAS SOLUTION       TEMPERATURE =   27.000 DEG C

                      MONTE CARLO PASS 11

******************************************************************************



 NODE   VOLTAGE     NODE   VOLTAGE     NODE   VOLTAGE     NODE   VOLTAGE


(   V+)   15.0000  (   V-)  -15.0000  (  OUT)-398.5E-06  (N00371)    0.0000     

(N00403)    0.0000 (N00652)-63.57E-06 (N00729)-338.9E-06 (N00884)-5.774E-06     

(N00933)-63.57E-06 (X_U1A.X_LT1013.6)-80.18E-09                                 

(X_U1A.X_LT1013.7)-344.3E-06          (X_U1A.X_LT1013.8)-344.3E-06              

(X_U1A.X_LT1013.9)    0.0000          (X_U1B.X_LT1013.6)-80.09E-09              

(X_U1B.X_LT1013.7)-399.7E-06          (X_U1B.X_LT1013.8)-399.7E-06              

(X_U1B.X_LT1013.9)    0.0000          (X_U1A.X_LT1013.10)     .6151             

(X_U1A.X_LT1013.11)  -14.9470         (X_U1A.X_LT1013.12)  -14.9470             

(X_U1A.X_LT1013.13)     .5880         (X_U1A.X_LT1013.14)     .5880             

(X_U1A.X_LT1013.53)   13.3900         (X_U1A.X_LT1013.54)  -14.3900             

(X_U1A.X_LT1013.90)-67.65E-06         (X_U1A.X_LT1013.91)   25.0000             

(X_U1A.X_LT1013.92)  -25.0000         (X_U1A.X_LT1013.99)    0.0000             

(X_U1B.X_LT1013.10)     .6151         (X_U1B.X_LT1013.11)  -14.9470             

(X_U1B.X_LT1013.12)  -14.9470         (X_U1B.X_LT1013.13)     .5880             

(X_U1B.X_LT1013.14)     .5880         (X_U1B.X_LT1013.53)   13.3900             

(X_U1B.X_LT1013.54)  -14.3900         (X_U1B.X_LT1013.90)-15.02E-06             

(X_U1B.X_LT1013.91)   25.0000         (X_U1B.X_LT1013.92)  -25.0000             

(X_U1B.X_LT1013.99)    0.0000         (X_U1A.X_LT1013.101) 5.930E-06            

(X_U1A.X_LT1013.102)-57.56E-06        (X_U1A.X_LT1013.105)  -14.6000            

(X_U1B.X_LT1013.101) 5.930E-06        (X_U1B.X_LT1013.102)-57.56E-06            

(X_U1B.X_LT1013.105)  -14.6000        




    VOLTAGE SOURCE CURRENTS
    NAME         CURRENT

    V_V1         6.799E-04
    V_V2        -6.801E-04
    V_V3         0.000E+00
    X_U1A.X_LT1013.VCMC   2.920E-11
    X_U1A.X_LT1013.VB  -8.018E-13
    X_U1A.X_LT1013.VC   1.339E-11
    X_U1A.X_LT1013.VE   1.439E-11
    X_U1A.X_LT1013.VLIM  -6.765E-08
    X_U1A.X_LT1013.VLP  -2.500E-11
    X_U1A.X_LT1013.VLN  -2.500E-11
    X_U1B.X_LT1013.VCMC   2.920E-11
    X_U1B.X_LT1013.VB  -8.009E-13
    X_U1B.X_LT1013.VC   1.339E-11
    X_U1B.X_LT1013.VE   1.439E-11
    X_U1B.X_LT1013.VLIM  -1.502E-08
    X_U1B.X_LT1013.VLP  -2.500E-11
    X_U1B.X_LT1013.VLN  -2.500E-11

    TOTAL POWER DISSIPATION   2.04E-02  WATTS


**** 12/30/20 12:40:34 ******* PSpice Lite (March 2016) ******* ID# 10813 ****

 ** Profile: "SCHEMATIC1-Monte-Carlo"  [ D:\Orcad\lab4\chebishev-pspicefiles\schematic1\monte-carlo.sim ] 


 ****     SMALL SIGNAL BIAS SOLUTION       TEMPERATURE =   27.000 DEG C

                      MONTE CARLO PASS 12

******************************************************************************



 NODE   VOLTAGE     NODE   VOLTAGE     NODE   VOLTAGE     NODE   VOLTAGE


(   V+)   15.0000  (   V-)  -15.0000  (  OUT)-395.6E-06  (N00371)    0.0000     

(N00403)    0.0000 (N00652)-63.57E-06 (N00729)-337.0E-06 (N00884)-5.747E-06     

(N00933)-63.57E-06 (X_U1A.X_LT1013.6)-80.19E-09                                 

(X_U1A.X_LT1013.7)-342.3E-06          (X_U1A.X_LT1013.8)-342.3E-06              

(X_U1A.X_LT1013.9)    0.0000          (X_U1B.X_LT1013.6)-80.10E-09              

(X_U1B.X_LT1013.7)-396.8E-06          (X_U1B.X_LT1013.8)-396.8E-06              

(X_U1B.X_LT1013.9)    0.0000          (X_U1A.X_LT1013.10)     .6151             

(X_U1A.X_LT1013.11)  -14.9470         (X_U1A.X_LT1013.12)  -14.9470             

(X_U1A.X_LT1013.13)     .5880         (X_U1A.X_LT1013.14)     .5880             

(X_U1A.X_LT1013.53)   13.3900         (X_U1A.X_LT1013.54)  -14.3900             

(X_U1A.X_LT1013.90)-67.36E-06         (X_U1A.X_LT1013.91)   25.0000             

(X_U1A.X_LT1013.92)  -25.0000         (X_U1A.X_LT1013.99)    0.0000             

(X_U1B.X_LT1013.10)     .6151         (X_U1B.X_LT1013.11)  -14.9470             

(X_U1B.X_LT1013.12)  -14.9470         (X_U1B.X_LT1013.13)     .5880             

(X_U1B.X_LT1013.14)     .5880         (X_U1B.X_LT1013.53)   13.3900             

(X_U1B.X_LT1013.54)  -14.3900         (X_U1B.X_LT1013.90)-15.02E-06             

(X_U1B.X_LT1013.91)   25.0000         (X_U1B.X_LT1013.92)  -25.0000             

(X_U1B.X_LT1013.99)    0.0000         (X_U1A.X_LT1013.101) 5.930E-06            

(X_U1A.X_LT1013.102)-57.56E-06        (X_U1A.X_LT1013.105)  -14.6000            

(X_U1B.X_LT1013.101) 5.930E-06        (X_U1B.X_LT1013.102)-57.56E-06            

(X_U1B.X_LT1013.105)  -14.6000        




    VOLTAGE SOURCE CURRENTS
    NAME         CURRENT

    V_V1         6.799E-04
    V_V2        -6.801E-04
    V_V3         0.000E+00
    X_U1A.X_LT1013.VCMC   2.920E-11
    X_U1A.X_LT1013.VB  -8.019E-13
    X_U1A.X_LT1013.VC   1.339E-11
    X_U1A.X_LT1013.VE   1.439E-11
    X_U1A.X_LT1013.VLIM  -6.736E-08
    X_U1A.X_LT1013.VLP  -2.500E-11
    X_U1A.X_LT1013.VLN  -2.500E-11
    X_U1B.X_LT1013.VCMC   2.920E-11
    X_U1B.X_LT1013.VB  -8.010E-13
    X_U1B.X_LT1013.VC   1.339E-11
    X_U1B.X_LT1013.VE   1.439E-11
    X_U1B.X_LT1013.VLIM  -1.502E-08
    X_U1B.X_LT1013.VLP  -2.500E-11
    X_U1B.X_LT1013.VLN  -2.500E-11

    TOTAL POWER DISSIPATION   2.04E-02  WATTS


**** 12/30/20 12:40:34 ******* PSpice Lite (March 2016) ******* ID# 10813 ****

 ** Profile: "SCHEMATIC1-Monte-Carlo"  [ D:\Orcad\lab4\chebishev-pspicefiles\schematic1\monte-carlo.sim ] 


 ****     SMALL SIGNAL BIAS SOLUTION       TEMPERATURE =   27.000 DEG C

                      MONTE CARLO PASS 13

******************************************************************************



 NODE   VOLTAGE     NODE   VOLTAGE     NODE   VOLTAGE     NODE   VOLTAGE


(   V+)   15.0000  (   V-)  -15.0000  (  OUT)-398.0E-06  (N00371)    0.0000     

(N00403)    0.0000 (N00652)-63.57E-06 (N00729)-335.7E-06 (N00884)-5.652E-06     

(N00933)-63.57E-06 (X_U1A.X_LT1013.6)-80.19E-09                                 

(X_U1A.X_LT1013.7)-341.1E-06          (X_U1A.X_LT1013.8)-341.1E-06              

(X_U1A.X_LT1013.9)    0.0000          (X_U1B.X_LT1013.6)-80.10E-09              

(X_U1B.X_LT1013.7)-399.2E-06          (X_U1B.X_LT1013.8)-399.2E-06              

(X_U1B.X_LT1013.9)    0.0000          (X_U1A.X_LT1013.10)     .6151             

(X_U1A.X_LT1013.11)  -14.9470         (X_U1A.X_LT1013.12)  -14.9470             

(X_U1A.X_LT1013.13)     .5880         (X_U1A.X_LT1013.14)     .5880             

(X_U1A.X_LT1013.53)   13.3900         (X_U1A.X_LT1013.54)  -14.3900             

(X_U1A.X_LT1013.90)-66.88E-06         (X_U1A.X_LT1013.91)   25.0000             

(X_U1A.X_LT1013.92)  -25.0000         (X_U1A.X_LT1013.99)    0.0000             

(X_U1B.X_LT1013.10)     .6151         (X_U1B.X_LT1013.11)  -14.9470             

(X_U1B.X_LT1013.12)  -14.9470         (X_U1B.X_LT1013.13)     .5880             

(X_U1B.X_LT1013.14)     .5880         (X_U1B.X_LT1013.53)   13.3900             

(X_U1B.X_LT1013.54)  -14.3900         (X_U1B.X_LT1013.90)-15.02E-06             

(X_U1B.X_LT1013.91)   25.0000         (X_U1B.X_LT1013.92)  -25.0000             

(X_U1B.X_LT1013.99)    0.0000         (X_U1A.X_LT1013.101) 5.930E-06            

(X_U1A.X_LT1013.102)-57.56E-06        (X_U1A.X_LT1013.105)  -14.6000            

(X_U1B.X_LT1013.101) 5.930E-06        (X_U1B.X_LT1013.102)-57.56E-06            

(X_U1B.X_LT1013.105)  -14.6000        




    VOLTAGE SOURCE CURRENTS
    NAME         CURRENT

    V_V1         6.799E-04
    V_V2        -6.801E-04
    V_V3         0.000E+00
    X_U1A.X_LT1013.VCMC   2.920E-11
    X_U1A.X_LT1013.VB  -8.019E-13
    X_U1A.X_LT1013.VC   1.339E-11
    X_U1A.X_LT1013.VE   1.439E-11
    X_U1A.X_LT1013.VLIM  -6.688E-08
    X_U1A.X_LT1013.VLP  -2.500E-11
    X_U1A.X_LT1013.VLN  -2.500E-11
    X_U1B.X_LT1013.VCMC   2.920E-11
    X_U1B.X_LT1013.VB  -8.010E-13
    X_U1B.X_LT1013.VC   1.339E-11
    X_U1B.X_LT1013.VE   1.439E-11
    X_U1B.X_LT1013.VLIM  -1.502E-08
    X_U1B.X_LT1013.VLP  -2.500E-11
    X_U1B.X_LT1013.VLN  -2.500E-11

    TOTAL POWER DISSIPATION   2.04E-02  WATTS


**** 12/30/20 12:40:34 ******* PSpice Lite (March 2016) ******* ID# 10813 ****

 ** Profile: "SCHEMATIC1-Monte-Carlo"  [ D:\Orcad\lab4\chebishev-pspicefiles\schematic1\monte-carlo.sim ] 


 ****     SMALL SIGNAL BIAS SOLUTION       TEMPERATURE =   27.000 DEG C

                      MONTE CARLO PASS 14

******************************************************************************



 NODE   VOLTAGE     NODE   VOLTAGE     NODE   VOLTAGE     NODE   VOLTAGE


(   V+)   15.0000  (   V-)  -15.0000  (  OUT)-392.7E-06  (N00371)    0.0000     

(N00403)    0.0000 (N00652)-63.57E-06 (N00729)-339.2E-06 (N00884)-5.800E-06     

(N00933)-63.57E-06 (X_U1A.X_LT1013.6)-80.18E-09                                 

(X_U1A.X_LT1013.7)-344.6E-06          (X_U1A.X_LT1013.8)-344.6E-06              

(X_U1A.X_LT1013.9)    0.0000          (X_U1B.X_LT1013.6)-80.10E-09              

(X_U1B.X_LT1013.7)-393.9E-06          (X_U1B.X_LT1013.8)-393.9E-06              

(X_U1B.X_LT1013.9)    0.0000          (X_U1A.X_LT1013.10)     .6151             

(X_U1A.X_LT1013.11)  -14.9470         (X_U1A.X_LT1013.12)  -14.9470             

(X_U1A.X_LT1013.13)     .5880         (X_U1A.X_LT1013.14)     .5880             

(X_U1A.X_LT1013.53)   13.3900         (X_U1A.X_LT1013.54)  -14.3900             

(X_U1A.X_LT1013.90)-67.79E-06         (X_U1A.X_LT1013.91)   25.0000             

(X_U1A.X_LT1013.92)  -25.0000         (X_U1A.X_LT1013.99)    0.0000             

(X_U1B.X_LT1013.10)     .6151         (X_U1B.X_LT1013.11)  -14.9470             

(X_U1B.X_LT1013.12)  -14.9470         (X_U1B.X_LT1013.13)     .5880             

(X_U1B.X_LT1013.14)     .5880         (X_U1B.X_LT1013.53)   13.3900             

(X_U1B.X_LT1013.54)  -14.3900         (X_U1B.X_LT1013.90)-15.02E-06             

(X_U1B.X_LT1013.91)   25.0000         (X_U1B.X_LT1013.92)  -25.0000             

(X_U1B.X_LT1013.99)    0.0000         (X_U1A.X_LT1013.101) 5.930E-06            

(X_U1A.X_LT1013.102)-57.56E-06        (X_U1A.X_LT1013.105)  -14.6000            

(X_U1B.X_LT1013.101) 5.930E-06        (X_U1B.X_LT1013.102)-57.56E-06            

(X_U1B.X_LT1013.105)  -14.6000        




    VOLTAGE SOURCE CURRENTS
    NAME         CURRENT

    V_V1         6.799E-04
    V_V2        -6.801E-04
    V_V3         0.000E+00
    X_U1A.X_LT1013.VCMC   2.920E-11
    X_U1A.X_LT1013.VB  -8.018E-13
    X_U1A.X_LT1013.VC   1.339E-11
    X_U1A.X_LT1013.VE   1.439E-11
    X_U1A.X_LT1013.VLIM  -6.779E-08
    X_U1A.X_LT1013.VLP  -2.500E-11
    X_U1A.X_LT1013.VLN  -2.500E-11
    X_U1B.X_LT1013.VCMC   2.920E-11
    X_U1B.X_LT1013.VB  -8.010E-13
    X_U1B.X_LT1013.VC   1.339E-11
    X_U1B.X_LT1013.VE   1.439E-11
    X_U1B.X_LT1013.VLIM  -1.502E-08
    X_U1B.X_LT1013.VLP  -2.500E-11
    X_U1B.X_LT1013.VLN  -2.500E-11

    TOTAL POWER DISSIPATION   2.04E-02  WATTS


**** 12/30/20 12:40:34 ******* PSpice Lite (March 2016) ******* ID# 10813 ****

 ** Profile: "SCHEMATIC1-Monte-Carlo"  [ D:\Orcad\lab4\chebishev-pspicefiles\schematic1\monte-carlo.sim ] 


 ****     SMALL SIGNAL BIAS SOLUTION       TEMPERATURE =   27.000 DEG C

                      MONTE CARLO PASS 15

******************************************************************************



 NODE   VOLTAGE     NODE   VOLTAGE     NODE   VOLTAGE     NODE   VOLTAGE


(   V+)   15.0000  (   V-)  -15.0000  (  OUT)-396.4E-06  (N00371)    0.0000     

(N00403)    0.0000 (N00652)-63.57E-06 (N00729)-335.5E-06 (N00884)-5.752E-06     

(N00933)-63.57E-06 (X_U1A.X_LT1013.6)-80.19E-09                                 

(X_U1A.X_LT1013.7)-340.9E-06          (X_U1A.X_LT1013.8)-340.9E-06              

(X_U1A.X_LT1013.9)    0.0000          (X_U1B.X_LT1013.6)-80.10E-09              

(X_U1B.X_LT1013.7)-397.6E-06          (X_U1B.X_LT1013.8)-397.6E-06              

(X_U1B.X_LT1013.9)    0.0000          (X_U1A.X_LT1013.10)     .6151             

(X_U1A.X_LT1013.11)  -14.9470         (X_U1A.X_LT1013.12)  -14.9470             

(X_U1A.X_LT1013.13)     .5880         (X_U1A.X_LT1013.14)     .5880             

(X_U1A.X_LT1013.53)   13.3900         (X_U1A.X_LT1013.54)  -14.3900             

(X_U1A.X_LT1013.90)-67.41E-06         (X_U1A.X_LT1013.91)   25.0000             

(X_U1A.X_LT1013.92)  -25.0000         (X_U1A.X_LT1013.99)    0.0000             

(X_U1B.X_LT1013.10)     .6151         (X_U1B.X_LT1013.11)  -14.9470             

(X_U1B.X_LT1013.12)  -14.9470         (X_U1B.X_LT1013.13)     .5880             

(X_U1B.X_LT1013.14)     .5880         (X_U1B.X_LT1013.53)   13.3900             

(X_U1B.X_LT1013.54)  -14.3900         (X_U1B.X_LT1013.90)-15.02E-06             

(X_U1B.X_LT1013.91)   25.0000         (X_U1B.X_LT1013.92)  -25.0000             

(X_U1B.X_LT1013.99)    0.0000         (X_U1A.X_LT1013.101) 5.930E-06            

(X_U1A.X_LT1013.102)-57.56E-06        (X_U1A.X_LT1013.105)  -14.6000            

(X_U1B.X_LT1013.101) 5.930E-06        (X_U1B.X_LT1013.102)-57.56E-06            

(X_U1B.X_LT1013.105)  -14.6000        




    VOLTAGE SOURCE CURRENTS
    NAME         CURRENT

    V_V1         6.799E-04
    V_V2        -6.801E-04
    V_V3         0.000E+00
    X_U1A.X_LT1013.VCMC   2.920E-11
    X_U1A.X_LT1013.VB  -8.019E-13
    X_U1A.X_LT1013.VC   1.339E-11
    X_U1A.X_LT1013.VE   1.439E-11
    X_U1A.X_LT1013.VLIM  -6.741E-08
    X_U1A.X_LT1013.VLP  -2.500E-11
    X_U1A.X_LT1013.VLN  -2.500E-11
    X_U1B.X_LT1013.VCMC   2.920E-11
    X_U1B.X_LT1013.VB  -8.010E-13
    X_U1B.X_LT1013.VC   1.339E-11
    X_U1B.X_LT1013.VE   1.439E-11
    X_U1B.X_LT1013.VLIM  -1.502E-08
    X_U1B.X_LT1013.VLP  -2.500E-11
    X_U1B.X_LT1013.VLN  -2.500E-11

    TOTAL POWER DISSIPATION   2.04E-02  WATTS


**** 12/30/20 12:40:34 ******* PSpice Lite (March 2016) ******* ID# 10813 ****

 ** Profile: "SCHEMATIC1-Monte-Carlo"  [ D:\Orcad\lab4\chebishev-pspicefiles\schematic1\monte-carlo.sim ] 


 ****     SMALL SIGNAL BIAS SOLUTION       TEMPERATURE =   27.000 DEG C

                      MONTE CARLO PASS 16

******************************************************************************



 NODE   VOLTAGE     NODE   VOLTAGE     NODE   VOLTAGE     NODE   VOLTAGE


(   V+)   15.0000  (   V-)  -15.0000  (  OUT)-398.6E-06  (N00371)    0.0000     

(N00403)    0.0000 (N00652)-63.57E-06 (N00729)-336.6E-06 (N00884)-5.796E-06     

(N00933)-63.57E-06 (X_U1A.X_LT1013.6)-80.19E-09                                 

(X_U1A.X_LT1013.7)-342.0E-06          (X_U1A.X_LT1013.8)-342.0E-06              

(X_U1A.X_LT1013.9)    0.0000          (X_U1B.X_LT1013.6)-80.09E-09              

(X_U1B.X_LT1013.7)-399.8E-06          (X_U1B.X_LT1013.8)-399.8E-06              

(X_U1B.X_LT1013.9)    0.0000          (X_U1A.X_LT1013.10)     .6151             

(X_U1A.X_LT1013.11)  -14.9470         (X_U1A.X_LT1013.12)  -14.9470             

(X_U1A.X_LT1013.13)     .5880         (X_U1A.X_LT1013.14)     .5880             

(X_U1A.X_LT1013.53)   13.3900         (X_U1A.X_LT1013.54)  -14.3900             

(X_U1A.X_LT1013.90)-67.44E-06         (X_U1A.X_LT1013.91)   25.0000             

(X_U1A.X_LT1013.92)  -25.0000         (X_U1A.X_LT1013.99)    0.0000             

(X_U1B.X_LT1013.10)     .6151         (X_U1B.X_LT1013.11)  -14.9470             

(X_U1B.X_LT1013.12)  -14.9470         (X_U1B.X_LT1013.13)     .5880             

(X_U1B.X_LT1013.14)     .5880         (X_U1B.X_LT1013.53)   13.3900             

(X_U1B.X_LT1013.54)  -14.3900         (X_U1B.X_LT1013.90)-15.02E-06             

(X_U1B.X_LT1013.91)   25.0000         (X_U1B.X_LT1013.92)  -25.0000             

(X_U1B.X_LT1013.99)    0.0000         (X_U1A.X_LT1013.101) 5.930E-06            

(X_U1A.X_LT1013.102)-57.56E-06        (X_U1A.X_LT1013.105)  -14.6000            

(X_U1B.X_LT1013.101) 5.930E-06        (X_U1B.X_LT1013.102)-57.56E-06            

(X_U1B.X_LT1013.105)  -14.6000        




    VOLTAGE SOURCE CURRENTS
    NAME         CURRENT

    V_V1         6.799E-04
    V_V2        -6.801E-04
    V_V3         0.000E+00
    X_U1A.X_LT1013.VCMC   2.920E-11
    X_U1A.X_LT1013.VB  -8.019E-13
    X_U1A.X_LT1013.VC   1.339E-11
    X_U1A.X_LT1013.VE   1.439E-11
    X_U1A.X_LT1013.VLIM  -6.744E-08
    X_U1A.X_LT1013.VLP  -2.500E-11
    X_U1A.X_LT1013.VLN  -2.500E-11
    X_U1B.X_LT1013.VCMC   2.920E-11
    X_U1B.X_LT1013.VB  -8.009E-13
    X_U1B.X_LT1013.VC   1.339E-11
    X_U1B.X_LT1013.VE   1.439E-11
    X_U1B.X_LT1013.VLIM  -1.502E-08
    X_U1B.X_LT1013.VLP  -2.500E-11
    X_U1B.X_LT1013.VLN  -2.500E-11

    TOTAL POWER DISSIPATION   2.04E-02  WATTS


**** 12/30/20 12:40:34 ******* PSpice Lite (March 2016) ******* ID# 10813 ****

 ** Profile: "SCHEMATIC1-Monte-Carlo"  [ D:\Orcad\lab4\chebishev-pspicefiles\schematic1\monte-carlo.sim ] 


 ****     SMALL SIGNAL BIAS SOLUTION       TEMPERATURE =   27.000 DEG C

                      MONTE CARLO PASS 17

******************************************************************************



 NODE   VOLTAGE     NODE   VOLTAGE     NODE   VOLTAGE     NODE   VOLTAGE


(   V+)   15.0000  (   V-)  -15.0000  (  OUT)-398.5E-06  (N00371)    0.0000     

(N00403)    0.0000 (N00652)-63.57E-06 (N00729)-337.1E-06 (N00884)-5.733E-06     

(N00933)-63.57E-06 (X_U1A.X_LT1013.6)-80.19E-09                                 

(X_U1A.X_LT1013.7)-342.4E-06          (X_U1A.X_LT1013.8)-342.4E-06              

(X_U1A.X_LT1013.9)    0.0000          (X_U1B.X_LT1013.6)-80.09E-09              

(X_U1B.X_LT1013.7)-399.7E-06          (X_U1B.X_LT1013.8)-399.7E-06              

(X_U1B.X_LT1013.9)    0.0000          (X_U1A.X_LT1013.10)     .6151             

(X_U1A.X_LT1013.11)  -14.9470         (X_U1A.X_LT1013.12)  -14.9470             

(X_U1A.X_LT1013.13)     .5880         (X_U1A.X_LT1013.14)     .5880             

(X_U1A.X_LT1013.53)   13.3900         (X_U1A.X_LT1013.54)  -14.3900             

(X_U1A.X_LT1013.90)-67.20E-06         (X_U1A.X_LT1013.91)   25.0000             

(X_U1A.X_LT1013.92)  -25.0000         (X_U1A.X_LT1013.99)    0.0000             

(X_U1B.X_LT1013.10)     .6151         (X_U1B.X_LT1013.11)  -14.9470             

(X_U1B.X_LT1013.12)  -14.9470         (X_U1B.X_LT1013.13)     .5880             

(X_U1B.X_LT1013.14)     .5880         (X_U1B.X_LT1013.53)   13.3900             

(X_U1B.X_LT1013.54)  -14.3900         (X_U1B.X_LT1013.90)-15.02E-06             

(X_U1B.X_LT1013.91)   25.0000         (X_U1B.X_LT1013.92)  -25.0000             

(X_U1B.X_LT1013.99)    0.0000         (X_U1A.X_LT1013.101) 5.930E-06            

(X_U1A.X_LT1013.102)-57.56E-06        (X_U1A.X_LT1013.105)  -14.6000            

(X_U1B.X_LT1013.101) 5.930E-06        (X_U1B.X_LT1013.102)-57.56E-06            

(X_U1B.X_LT1013.105)  -14.6000        




    VOLTAGE SOURCE CURRENTS
    NAME         CURRENT

    V_V1         6.799E-04
    V_V2        -6.801E-04
    V_V3         0.000E+00
    X_U1A.X_LT1013.VCMC   2.920E-11
    X_U1A.X_LT1013.VB  -8.019E-13
    X_U1A.X_LT1013.VC   1.339E-11
    X_U1A.X_LT1013.VE   1.439E-11
    X_U1A.X_LT1013.VLIM  -6.720E-08
    X_U1A.X_LT1013.VLP  -2.500E-11
    X_U1A.X_LT1013.VLN  -2.500E-11
    X_U1B.X_LT1013.VCMC   2.920E-11
    X_U1B.X_LT1013.VB  -8.009E-13
    X_U1B.X_LT1013.VC   1.339E-11
    X_U1B.X_LT1013.VE   1.439E-11
    X_U1B.X_LT1013.VLIM  -1.502E-08
    X_U1B.X_LT1013.VLP  -2.500E-11
    X_U1B.X_LT1013.VLN  -2.500E-11

    TOTAL POWER DISSIPATION   2.04E-02  WATTS


**** 12/30/20 12:40:34 ******* PSpice Lite (March 2016) ******* ID# 10813 ****

 ** Profile: "SCHEMATIC1-Monte-Carlo"  [ D:\Orcad\lab4\chebishev-pspicefiles\schematic1\monte-carlo.sim ] 


 ****     SMALL SIGNAL BIAS SOLUTION       TEMPERATURE =   27.000 DEG C

                      MONTE CARLO PASS 18

******************************************************************************



 NODE   VOLTAGE     NODE   VOLTAGE     NODE   VOLTAGE     NODE   VOLTAGE


(   V+)   15.0000  (   V-)  -15.0000  (  OUT)-393.2E-06  (N00371)    0.0000     

(N00403)    0.0000 (N00652)-63.57E-06 (N00729)-338.6E-06 (N00884)-5.743E-06     

(N00933)-63.57E-06 (X_U1A.X_LT1013.6)-80.18E-09                                 

(X_U1A.X_LT1013.7)-344.0E-06          (X_U1A.X_LT1013.8)-344.0E-06              

(X_U1A.X_LT1013.9)    0.0000          (X_U1B.X_LT1013.6)-80.10E-09              

(X_U1B.X_LT1013.7)-394.4E-06          (X_U1B.X_LT1013.8)-394.4E-06              

(X_U1B.X_LT1013.9)    0.0000          (X_U1A.X_LT1013.10)     .6151             

(X_U1A.X_LT1013.11)  -14.9470         (X_U1A.X_LT1013.12)  -14.9470             

(X_U1A.X_LT1013.13)     .5880         (X_U1A.X_LT1013.14)     .5880             

(X_U1A.X_LT1013.53)   13.3900         (X_U1A.X_LT1013.54)  -14.3900             

(X_U1A.X_LT1013.90)-67.55E-06         (X_U1A.X_LT1013.91)   25.0000             

(X_U1A.X_LT1013.92)  -25.0000         (X_U1A.X_LT1013.99)    0.0000             

(X_U1B.X_LT1013.10)     .6151         (X_U1B.X_LT1013.11)  -14.9470             

(X_U1B.X_LT1013.12)  -14.9470         (X_U1B.X_LT1013.13)     .5880             

(X_U1B.X_LT1013.14)     .5880         (X_U1B.X_LT1013.53)   13.3900             

(X_U1B.X_LT1013.54)  -14.3900         (X_U1B.X_LT1013.90)-15.02E-06             

(X_U1B.X_LT1013.91)   25.0000         (X_U1B.X_LT1013.92)  -25.0000             

(X_U1B.X_LT1013.99)    0.0000         (X_U1A.X_LT1013.101) 5.930E-06            

(X_U1A.X_LT1013.102)-57.56E-06        (X_U1A.X_LT1013.105)  -14.6000            

(X_U1B.X_LT1013.101) 5.930E-06        (X_U1B.X_LT1013.102)-57.56E-06            

(X_U1B.X_LT1013.105)  -14.6000        




    VOLTAGE SOURCE CURRENTS
    NAME         CURRENT

    V_V1         6.799E-04
    V_V2        -6.801E-04
    V_V3         0.000E+00
    X_U1A.X_LT1013.VCMC   2.920E-11
    X_U1A.X_LT1013.VB  -8.018E-13
    X_U1A.X_LT1013.VC   1.339E-11
    X_U1A.X_LT1013.VE   1.439E-11
    X_U1A.X_LT1013.VLIM  -6.755E-08
    X_U1A.X_LT1013.VLP  -2.500E-11
    X_U1A.X_LT1013.VLN  -2.500E-11
    X_U1B.X_LT1013.VCMC   2.920E-11
    X_U1B.X_LT1013.VB  -8.010E-13
    X_U1B.X_LT1013.VC   1.339E-11
    X_U1B.X_LT1013.VE   1.439E-11
    X_U1B.X_LT1013.VLIM  -1.502E-08
    X_U1B.X_LT1013.VLP  -2.500E-11
    X_U1B.X_LT1013.VLN  -2.500E-11

    TOTAL POWER DISSIPATION   2.04E-02  WATTS


**** 12/30/20 12:40:34 ******* PSpice Lite (March 2016) ******* ID# 10813 ****

 ** Profile: "SCHEMATIC1-Monte-Carlo"  [ D:\Orcad\lab4\chebishev-pspicefiles\schematic1\monte-carlo.sim ] 


 ****     SMALL SIGNAL BIAS SOLUTION       TEMPERATURE =   27.000 DEG C

                      MONTE CARLO PASS 19

******************************************************************************



 NODE   VOLTAGE     NODE   VOLTAGE     NODE   VOLTAGE     NODE   VOLTAGE


(   V+)   15.0000  (   V-)  -15.0000  (  OUT)-398.0E-06  (N00371)    0.0000     

(N00403)    0.0000 (N00652)-63.57E-06 (N00729)-339.2E-06 (N00884)-5.825E-06     

(N00933)-63.57E-06 (X_U1A.X_LT1013.6)-80.18E-09                                 

(X_U1A.X_LT1013.7)-344.6E-06          (X_U1A.X_LT1013.8)-344.6E-06              

(X_U1A.X_LT1013.9)    0.0000          (X_U1B.X_LT1013.6)-80.10E-09              

(X_U1B.X_LT1013.7)-399.2E-06          (X_U1B.X_LT1013.8)-399.2E-06              

(X_U1B.X_LT1013.9)    0.0000          (X_U1A.X_LT1013.10)     .6151             

(X_U1A.X_LT1013.11)  -14.9470         (X_U1A.X_LT1013.12)  -14.9470             

(X_U1A.X_LT1013.13)     .5880         (X_U1A.X_LT1013.14)     .5880             

(X_U1A.X_LT1013.53)   13.3900         (X_U1A.X_LT1013.54)  -14.3900             

(X_U1A.X_LT1013.90)-67.55E-06         (X_U1A.X_LT1013.91)   25.0000             

(X_U1A.X_LT1013.92)  -25.0000         (X_U1A.X_LT1013.99)    0.0000             

(X_U1B.X_LT1013.10)     .6151         (X_U1B.X_LT1013.11)  -14.9470             

(X_U1B.X_LT1013.12)  -14.9470         (X_U1B.X_LT1013.13)     .5880             

(X_U1B.X_LT1013.14)     .5880         (X_U1B.X_LT1013.53)   13.3900             

(X_U1B.X_LT1013.54)  -14.3900         (X_U1B.X_LT1013.90)-15.02E-06             

(X_U1B.X_LT1013.91)   25.0000         (X_U1B.X_LT1013.92)  -25.0000             

(X_U1B.X_LT1013.99)    0.0000         (X_U1A.X_LT1013.101) 5.930E-06            

(X_U1A.X_LT1013.102)-57.56E-06        (X_U1A.X_LT1013.105)  -14.6000            

(X_U1B.X_LT1013.101) 5.930E-06        (X_U1B.X_LT1013.102)-57.56E-06            

(X_U1B.X_LT1013.105)  -14.6000        




    VOLTAGE SOURCE CURRENTS
    NAME         CURRENT

    V_V1         6.799E-04
    V_V2        -6.801E-04
    V_V3         0.000E+00
    X_U1A.X_LT1013.VCMC   2.920E-11
    X_U1A.X_LT1013.VB  -8.018E-13
    X_U1A.X_LT1013.VC   1.339E-11
    X_U1A.X_LT1013.VE   1.439E-11
    X_U1A.X_LT1013.VLIM  -6.755E-08
    X_U1A.X_LT1013.VLP  -2.500E-11
    X_U1A.X_LT1013.VLN  -2.500E-11
    X_U1B.X_LT1013.VCMC   2.920E-11
    X_U1B.X_LT1013.VB  -8.010E-13
    X_U1B.X_LT1013.VC   1.339E-11
    X_U1B.X_LT1013.VE   1.439E-11
    X_U1B.X_LT1013.VLIM  -1.502E-08
    X_U1B.X_LT1013.VLP  -2.500E-11
    X_U1B.X_LT1013.VLN  -2.500E-11

    TOTAL POWER DISSIPATION   2.04E-02  WATTS


**** 12/30/20 12:40:34 ******* PSpice Lite (March 2016) ******* ID# 10813 ****

 ** Profile: "SCHEMATIC1-Monte-Carlo"  [ D:\Orcad\lab4\chebishev-pspicefiles\schematic1\monte-carlo.sim ] 


 ****     SMALL SIGNAL BIAS SOLUTION       TEMPERATURE =   27.000 DEG C

                      MONTE CARLO PASS 20

******************************************************************************



 NODE   VOLTAGE     NODE   VOLTAGE     NODE   VOLTAGE     NODE   VOLTAGE


(   V+)   15.0000  (   V-)  -15.0000  (  OUT)-398.7E-06  (N00371)    0.0000     

(N00403)    0.0000 (N00652)-63.57E-06 (N00729)-335.3E-06 (N00884)-5.744E-06     

(N00933)-63.57E-06 (X_U1A.X_LT1013.6)-80.19E-09                                 

(X_U1A.X_LT1013.7)-340.6E-06          (X_U1A.X_LT1013.8)-340.6E-06              

(X_U1A.X_LT1013.9)    0.0000          (X_U1B.X_LT1013.6)-80.09E-09              

(X_U1B.X_LT1013.7)-399.9E-06          (X_U1B.X_LT1013.8)-399.9E-06              

(X_U1B.X_LT1013.9)    0.0000          (X_U1A.X_LT1013.10)     .6151             

(X_U1A.X_LT1013.11)  -14.9470         (X_U1A.X_LT1013.12)  -14.9470             

(X_U1A.X_LT1013.13)     .5880         (X_U1A.X_LT1013.14)     .5880             

(X_U1A.X_LT1013.53)   13.3900         (X_U1A.X_LT1013.54)  -14.3900             

(X_U1A.X_LT1013.90)-66.93E-06         (X_U1A.X_LT1013.91)   25.0000             

(X_U1A.X_LT1013.92)  -25.0000         (X_U1A.X_LT1013.99)    0.0000             

(X_U1B.X_LT1013.10)     .6151         (X_U1B.X_LT1013.11)  -14.9470             

(X_U1B.X_LT1013.12)  -14.9470         (X_U1B.X_LT1013.13)     .5880             

(X_U1B.X_LT1013.14)     .5880         (X_U1B.X_LT1013.53)   13.3900             

(X_U1B.X_LT1013.54)  -14.3900         (X_U1B.X_LT1013.90)-15.02E-06             

(X_U1B.X_LT1013.91)   25.0000         (X_U1B.X_LT1013.92)  -25.0000             

(X_U1B.X_LT1013.99)    0.0000         (X_U1A.X_LT1013.101) 5.930E-06            

(X_U1A.X_LT1013.102)-57.56E-06        (X_U1A.X_LT1013.105)  -14.6000            

(X_U1B.X_LT1013.101) 5.930E-06        (X_U1B.X_LT1013.102)-57.56E-06            

(X_U1B.X_LT1013.105)  -14.6000        




    VOLTAGE SOURCE CURRENTS
    NAME         CURRENT

    V_V1         6.799E-04
    V_V2        -6.801E-04
    V_V3         0.000E+00
    X_U1A.X_LT1013.VCMC   2.920E-11
    X_U1A.X_LT1013.VB  -8.019E-13
    X_U1A.X_LT1013.VC   1.339E-11
    X_U1A.X_LT1013.VE   1.439E-11
    X_U1A.X_LT1013.VLIM  -6.693E-08
    X_U1A.X_LT1013.VLP  -2.500E-11
    X_U1A.X_LT1013.VLN  -2.500E-11
    X_U1B.X_LT1013.VCMC   2.920E-11
    X_U1B.X_LT1013.VB  -8.009E-13
    X_U1B.X_LT1013.VC   1.339E-11
    X_U1B.X_LT1013.VE   1.439E-11
    X_U1B.X_LT1013.VLIM  -1.502E-08
    X_U1B.X_LT1013.VLP  -2.500E-11
    X_U1B.X_LT1013.VLN  -2.500E-11

    TOTAL POWER DISSIPATION   2.04E-02  WATTS


**** 12/30/20 12:40:34 ******* PSpice Lite (March 2016) ******* ID# 10813 ****

 ** Profile: "SCHEMATIC1-Monte-Carlo"  [ D:\Orcad\lab4\chebishev-pspicefiles\schematic1\monte-carlo.sim ] 


 ****     SMALL SIGNAL BIAS SOLUTION       TEMPERATURE =   27.000 DEG C

                      MONTE CARLO PASS 21

******************************************************************************



 NODE   VOLTAGE     NODE   VOLTAGE     NODE   VOLTAGE     NODE   VOLTAGE


(   V+)   15.0000  (   V-)  -15.0000  (  OUT)-395.4E-06  (N00371)    0.0000     

(N00403)    0.0000 (N00652)-63.57E-06 (N00729)-338.3E-06 (N00884)-5.770E-06     

(N00933)-63.57E-06 (X_U1A.X_LT1013.6)-80.18E-09                                 

(X_U1A.X_LT1013.7)-343.7E-06          (X_U1A.X_LT1013.8)-343.7E-06              

(X_U1A.X_LT1013.9)    0.0000          (X_U1B.X_LT1013.6)-80.10E-09              

(X_U1B.X_LT1013.7)-396.6E-06          (X_U1B.X_LT1013.8)-396.6E-06              

(X_U1B.X_LT1013.9)    0.0000          (X_U1A.X_LT1013.10)     .6151             

(X_U1A.X_LT1013.11)  -14.9470         (X_U1A.X_LT1013.12)  -14.9470             

(X_U1A.X_LT1013.13)     .5880         (X_U1A.X_LT1013.14)     .5880             

(X_U1A.X_LT1013.53)   13.3900         (X_U1A.X_LT1013.54)  -14.3900             

(X_U1A.X_LT1013.90)-67.10E-06         (X_U1A.X_LT1013.91)   25.0000             

(X_U1A.X_LT1013.92)  -25.0000         (X_U1A.X_LT1013.99)    0.0000             

(X_U1B.X_LT1013.10)     .6151         (X_U1B.X_LT1013.11)  -14.9470             

(X_U1B.X_LT1013.12)  -14.9470         (X_U1B.X_LT1013.13)     .5880             

(X_U1B.X_LT1013.14)     .5880         (X_U1B.X_LT1013.53)   13.3900             

(X_U1B.X_LT1013.54)  -14.3900         (X_U1B.X_LT1013.90)-15.02E-06             

(X_U1B.X_LT1013.91)   25.0000         (X_U1B.X_LT1013.92)  -25.0000             

(X_U1B.X_LT1013.99)    0.0000         (X_U1A.X_LT1013.101) 5.930E-06            

(X_U1A.X_LT1013.102)-57.56E-06        (X_U1A.X_LT1013.105)  -14.6000            

(X_U1B.X_LT1013.101) 5.930E-06        (X_U1B.X_LT1013.102)-57.56E-06            

(X_U1B.X_LT1013.105)  -14.6000        




    VOLTAGE SOURCE CURRENTS
    NAME         CURRENT

    V_V1         6.799E-04
    V_V2        -6.801E-04
    V_V3         0.000E+00
    X_U1A.X_LT1013.VCMC   2.920E-11
    X_U1A.X_LT1013.VB  -8.018E-13
    X_U1A.X_LT1013.VC   1.339E-11
    X_U1A.X_LT1013.VE   1.439E-11
    X_U1A.X_LT1013.VLIM  -6.710E-08
    X_U1A.X_LT1013.VLP  -2.500E-11
    X_U1A.X_LT1013.VLN  -2.500E-11
    X_U1B.X_LT1013.VCMC   2.920E-11
    X_U1B.X_LT1013.VB  -8.010E-13
    X_U1B.X_LT1013.VC   1.339E-11
    X_U1B.X_LT1013.VE   1.439E-11
    X_U1B.X_LT1013.VLIM  -1.502E-08
    X_U1B.X_LT1013.VLP  -2.500E-11
    X_U1B.X_LT1013.VLN  -2.500E-11

    TOTAL POWER DISSIPATION   2.04E-02  WATTS


**** 12/30/20 12:40:34 ******* PSpice Lite (March 2016) ******* ID# 10813 ****

 ** Profile: "SCHEMATIC1-Monte-Carlo"  [ D:\Orcad\lab4\chebishev-pspicefiles\schematic1\monte-carlo.sim ] 


 ****     SMALL SIGNAL BIAS SOLUTION       TEMPERATURE =   27.000 DEG C

                      MONTE CARLO PASS 22

******************************************************************************



 NODE   VOLTAGE     NODE   VOLTAGE     NODE   VOLTAGE     NODE   VOLTAGE


(   V+)   15.0000  (   V-)  -15.0000  (  OUT)-393.7E-06  (N00371)    0.0000     

(N00403)    0.0000 (N00652)-63.57E-06 (N00729)-334.9E-06 (N00884)-5.627E-06     

(N00933)-63.57E-06 (X_U1A.X_LT1013.6)-80.19E-09                                 

(X_U1A.X_LT1013.7)-340.3E-06          (X_U1A.X_LT1013.8)-340.3E-06              

(X_U1A.X_LT1013.9)    0.0000          (X_U1B.X_LT1013.6)-80.10E-09              

(X_U1B.X_LT1013.7)-394.9E-06          (X_U1B.X_LT1013.8)-394.9E-06              

(X_U1B.X_LT1013.9)    0.0000          (X_U1A.X_LT1013.10)     .6151             

(X_U1A.X_LT1013.11)  -14.9470         (X_U1A.X_LT1013.12)  -14.9470             

(X_U1A.X_LT1013.13)     .5880         (X_U1A.X_LT1013.14)     .5880             

(X_U1A.X_LT1013.53)   13.3900         (X_U1A.X_LT1013.54)  -14.3900             

(X_U1A.X_LT1013.90)-66.69E-06         (X_U1A.X_LT1013.91)   25.0000             

(X_U1A.X_LT1013.92)  -25.0000         (X_U1A.X_LT1013.99)    0.0000             

(X_U1B.X_LT1013.10)     .6151         (X_U1B.X_LT1013.11)  -14.9470             

(X_U1B.X_LT1013.12)  -14.9470         (X_U1B.X_LT1013.13)     .5880             

(X_U1B.X_LT1013.14)     .5880         (X_U1B.X_LT1013.53)   13.3900             

(X_U1B.X_LT1013.54)  -14.3900         (X_U1B.X_LT1013.90)-15.02E-06             

(X_U1B.X_LT1013.91)   25.0000         (X_U1B.X_LT1013.92)  -25.0000             

(X_U1B.X_LT1013.99)    0.0000         (X_U1A.X_LT1013.101) 5.930E-06            

(X_U1A.X_LT1013.102)-57.56E-06        (X_U1A.X_LT1013.105)  -14.6000            

(X_U1B.X_LT1013.101) 5.930E-06        (X_U1B.X_LT1013.102)-57.56E-06            

(X_U1B.X_LT1013.105)  -14.6000        




    VOLTAGE SOURCE CURRENTS
    NAME         CURRENT

    V_V1         6.799E-04
    V_V2        -6.801E-04
    V_V3         0.000E+00
    X_U1A.X_LT1013.VCMC   2.920E-11
    X_U1A.X_LT1013.VB  -8.019E-13
    X_U1A.X_LT1013.VC   1.339E-11
    X_U1A.X_LT1013.VE   1.439E-11
    X_U1A.X_LT1013.VLIM  -6.669E-08
    X_U1A.X_LT1013.VLP  -2.500E-11
    X_U1A.X_LT1013.VLN  -2.500E-11
    X_U1B.X_LT1013.VCMC   2.920E-11
    X_U1B.X_LT1013.VB  -8.010E-13
    X_U1B.X_LT1013.VC   1.339E-11
    X_U1B.X_LT1013.VE   1.439E-11
    X_U1B.X_LT1013.VLIM  -1.502E-08
    X_U1B.X_LT1013.VLP  -2.500E-11
    X_U1B.X_LT1013.VLN  -2.500E-11

    TOTAL POWER DISSIPATION   2.04E-02  WATTS


**** 12/30/20 12:40:34 ******* PSpice Lite (March 2016) ******* ID# 10813 ****

 ** Profile: "SCHEMATIC1-Monte-Carlo"  [ D:\Orcad\lab4\chebishev-pspicefiles\schematic1\monte-carlo.sim ] 


 ****     SMALL SIGNAL BIAS SOLUTION       TEMPERATURE =   27.000 DEG C

                      MONTE CARLO PASS 23

******************************************************************************



 NODE   VOLTAGE     NODE   VOLTAGE     NODE   VOLTAGE     NODE   VOLTAGE


(   V+)   15.0000  (   V-)  -15.0000  (  OUT)-395.1E-06  (N00371)    0.0000     

(N00403)    0.0000 (N00652)-63.57E-06 (N00729)-335.2E-06 (N00884)-5.651E-06     

(N00933)-63.57E-06 (X_U1A.X_LT1013.6)-80.19E-09                                 

(X_U1A.X_LT1013.7)-340.5E-06          (X_U1A.X_LT1013.8)-340.5E-06              

(X_U1A.X_LT1013.9)    0.0000          (X_U1B.X_LT1013.6)-80.10E-09              

(X_U1B.X_LT1013.7)-396.3E-06          (X_U1B.X_LT1013.8)-396.3E-06              

(X_U1B.X_LT1013.9)    0.0000          (X_U1A.X_LT1013.10)     .6151             

(X_U1A.X_LT1013.11)  -14.9470         (X_U1A.X_LT1013.12)  -14.9470             

(X_U1A.X_LT1013.13)     .5880         (X_U1A.X_LT1013.14)     .5880             

(X_U1A.X_LT1013.53)   13.3900         (X_U1A.X_LT1013.54)  -14.3900             

(X_U1A.X_LT1013.90)-66.59E-06         (X_U1A.X_LT1013.91)   25.0000             

(X_U1A.X_LT1013.92)  -25.0000         (X_U1A.X_LT1013.99)    0.0000             

(X_U1B.X_LT1013.10)     .6151         (X_U1B.X_LT1013.11)  -14.9470             

(X_U1B.X_LT1013.12)  -14.9470         (X_U1B.X_LT1013.13)     .5880             

(X_U1B.X_LT1013.14)     .5880         (X_U1B.X_LT1013.53)   13.3900             

(X_U1B.X_LT1013.54)  -14.3900         (X_U1B.X_LT1013.90)-15.02E-06             

(X_U1B.X_LT1013.91)   25.0000         (X_U1B.X_LT1013.92)  -25.0000             

(X_U1B.X_LT1013.99)    0.0000         (X_U1A.X_LT1013.101) 5.930E-06            

(X_U1A.X_LT1013.102)-57.56E-06        (X_U1A.X_LT1013.105)  -14.6000            

(X_U1B.X_LT1013.101) 5.930E-06        (X_U1B.X_LT1013.102)-57.56E-06            

(X_U1B.X_LT1013.105)  -14.6000        




    VOLTAGE SOURCE CURRENTS
    NAME         CURRENT

    V_V1         6.799E-04
    V_V2        -6.801E-04
    V_V3         0.000E+00
    X_U1A.X_LT1013.VCMC   2.920E-11
    X_U1A.X_LT1013.VB  -8.019E-13
    X_U1A.X_LT1013.VC   1.339E-11
    X_U1A.X_LT1013.VE   1.439E-11
    X_U1A.X_LT1013.VLIM  -6.659E-08
    X_U1A.X_LT1013.VLP  -2.500E-11
    X_U1A.X_LT1013.VLN  -2.500E-11
    X_U1B.X_LT1013.VCMC   2.920E-11
    X_U1B.X_LT1013.VB  -8.010E-13
    X_U1B.X_LT1013.VC   1.339E-11
    X_U1B.X_LT1013.VE   1.439E-11
    X_U1B.X_LT1013.VLIM  -1.502E-08
    X_U1B.X_LT1013.VLP  -2.500E-11
    X_U1B.X_LT1013.VLN  -2.500E-11

    TOTAL POWER DISSIPATION   2.04E-02  WATTS


**** 12/30/20 12:40:34 ******* PSpice Lite (March 2016) ******* ID# 10813 ****

 ** Profile: "SCHEMATIC1-Monte-Carlo"  [ D:\Orcad\lab4\chebishev-pspicefiles\schematic1\monte-carlo.sim ] 


 ****     SMALL SIGNAL BIAS SOLUTION       TEMPERATURE =   27.000 DEG C

                      MONTE CARLO PASS 24

******************************************************************************



 NODE   VOLTAGE     NODE   VOLTAGE     NODE   VOLTAGE     NODE   VOLTAGE


(   V+)   15.0000  (   V-)  -15.0000  (  OUT)-394.1E-06  (N00371)    0.0000     

(N00403)    0.0000 (N00652)-63.57E-06 (N00729)-335.8E-06 (N00884)-5.736E-06     

(N00933)-63.57E-06 (X_U1A.X_LT1013.6)-80.19E-09                                 

(X_U1A.X_LT1013.7)-341.1E-06          (X_U1A.X_LT1013.8)-341.1E-06              

(X_U1A.X_LT1013.9)    0.0000          (X_U1B.X_LT1013.6)-80.10E-09              

(X_U1B.X_LT1013.7)-395.3E-06          (X_U1B.X_LT1013.8)-395.3E-06              

(X_U1B.X_LT1013.9)    0.0000          (X_U1A.X_LT1013.10)     .6151             

(X_U1A.X_LT1013.11)  -14.9470         (X_U1A.X_LT1013.12)  -14.9470             

(X_U1A.X_LT1013.13)     .5880         (X_U1A.X_LT1013.14)     .5880             

(X_U1A.X_LT1013.53)   13.3900         (X_U1A.X_LT1013.54)  -14.3900             

(X_U1A.X_LT1013.90)-66.69E-06         (X_U1A.X_LT1013.91)   25.0000             

(X_U1A.X_LT1013.92)  -25.0000         (X_U1A.X_LT1013.99)    0.0000             

(X_U1B.X_LT1013.10)     .6151         (X_U1B.X_LT1013.11)  -14.9470             

(X_U1B.X_LT1013.12)  -14.9470         (X_U1B.X_LT1013.13)     .5880             

(X_U1B.X_LT1013.14)     .5880         (X_U1B.X_LT1013.53)   13.3900             

(X_U1B.X_LT1013.54)  -14.3900         (X_U1B.X_LT1013.90)-15.02E-06             

(X_U1B.X_LT1013.91)   25.0000         (X_U1B.X_LT1013.92)  -25.0000             

(X_U1B.X_LT1013.99)    0.0000         (X_U1A.X_LT1013.101) 5.930E-06            

(X_U1A.X_LT1013.102)-57.56E-06        (X_U1A.X_LT1013.105)  -14.6000            

(X_U1B.X_LT1013.101) 5.930E-06        (X_U1B.X_LT1013.102)-57.56E-06            

(X_U1B.X_LT1013.105)  -14.6000        




    VOLTAGE SOURCE CURRENTS
    NAME         CURRENT

    V_V1         6.799E-04
    V_V2        -6.801E-04
    V_V3         0.000E+00
    X_U1A.X_LT1013.VCMC   2.920E-11
    X_U1A.X_LT1013.VB  -8.019E-13
    X_U1A.X_LT1013.VC   1.339E-11
    X_U1A.X_LT1013.VE   1.439E-11
    X_U1A.X_LT1013.VLIM  -6.669E-08
    X_U1A.X_LT1013.VLP  -2.500E-11
    X_U1A.X_LT1013.VLN  -2.500E-11
    X_U1B.X_LT1013.VCMC   2.920E-11
    X_U1B.X_LT1013.VB  -8.010E-13
    X_U1B.X_LT1013.VC   1.339E-11
    X_U1B.X_LT1013.VE   1.439E-11
    X_U1B.X_LT1013.VLIM  -1.502E-08
    X_U1B.X_LT1013.VLP  -2.500E-11
    X_U1B.X_LT1013.VLN  -2.500E-11

    TOTAL POWER DISSIPATION   2.04E-02  WATTS


**** 12/30/20 12:40:34 ******* PSpice Lite (March 2016) ******* ID# 10813 ****

 ** Profile: "SCHEMATIC1-Monte-Carlo"  [ D:\Orcad\lab4\chebishev-pspicefiles\schematic1\monte-carlo.sim ] 


 ****     SMALL SIGNAL BIAS SOLUTION       TEMPERATURE =   27.000 DEG C

                      MONTE CARLO PASS 25

******************************************************************************



 NODE   VOLTAGE     NODE   VOLTAGE     NODE   VOLTAGE     NODE   VOLTAGE


(   V+)   15.0000  (   V-)  -15.0000  (  OUT)-395.4E-06  (N00371)    0.0000     

(N00403)    0.0000 (N00652)-63.57E-06 (N00729)-338.9E-06 (N00884)-5.779E-06     

(N00933)-63.57E-06 (X_U1A.X_LT1013.6)-80.18E-09                                 

(X_U1A.X_LT1013.7)-344.3E-06          (X_U1A.X_LT1013.8)-344.3E-06              

(X_U1A.X_LT1013.9)    0.0000          (X_U1B.X_LT1013.6)-80.10E-09              

(X_U1B.X_LT1013.7)-396.6E-06          (X_U1B.X_LT1013.8)-396.6E-06              

(X_U1B.X_LT1013.9)    0.0000          (X_U1A.X_LT1013.10)     .6151             

(X_U1A.X_LT1013.11)  -14.9470         (X_U1A.X_LT1013.12)  -14.9470             

(X_U1A.X_LT1013.13)     .5880         (X_U1A.X_LT1013.14)     .5880             

(X_U1A.X_LT1013.53)   13.3900         (X_U1A.X_LT1013.54)  -14.3900             

(X_U1A.X_LT1013.90)-67.47E-06         (X_U1A.X_LT1013.91)   25.0000             

(X_U1A.X_LT1013.92)  -25.0000         (X_U1A.X_LT1013.99)    0.0000             

(X_U1B.X_LT1013.10)     .6151         (X_U1B.X_LT1013.11)  -14.9470             

(X_U1B.X_LT1013.12)  -14.9470         (X_U1B.X_LT1013.13)     .5880             

(X_U1B.X_LT1013.14)     .5880         (X_U1B.X_LT1013.53)   13.3900             

(X_U1B.X_LT1013.54)  -14.3900         (X_U1B.X_LT1013.90)-15.02E-06             

(X_U1B.X_LT1013.91)   25.0000         (X_U1B.X_LT1013.92)  -25.0000             

(X_U1B.X_LT1013.99)    0.0000         (X_U1A.X_LT1013.101) 5.930E-06            

(X_U1A.X_LT1013.102)-57.56E-06        (X_U1A.X_LT1013.105)  -14.6000            

(X_U1B.X_LT1013.101) 5.930E-06        (X_U1B.X_LT1013.102)-57.56E-06            

(X_U1B.X_LT1013.105)  -14.6000        




    VOLTAGE SOURCE CURRENTS
    NAME         CURRENT

    V_V1         6.799E-04
    V_V2        -6.801E-04
    V_V3         0.000E+00
    X_U1A.X_LT1013.VCMC   2.920E-11
    X_U1A.X_LT1013.VB  -8.018E-13
    X_U1A.X_LT1013.VC   1.339E-11
    X_U1A.X_LT1013.VE   1.439E-11
    X_U1A.X_LT1013.VLIM  -6.747E-08
    X_U1A.X_LT1013.VLP  -2.500E-11
    X_U1A.X_LT1013.VLN  -2.500E-11
    X_U1B.X_LT1013.VCMC   2.920E-11
    X_U1B.X_LT1013.VB  -8.010E-13
    X_U1B.X_LT1013.VC   1.339E-11
    X_U1B.X_LT1013.VE   1.439E-11
    X_U1B.X_LT1013.VLIM  -1.502E-08
    X_U1B.X_LT1013.VLP  -2.500E-11
    X_U1B.X_LT1013.VLN  -2.500E-11

    TOTAL POWER DISSIPATION   2.04E-02  WATTS


**** 12/30/20 12:40:34 ******* PSpice Lite (March 2016) ******* ID# 10813 ****

 ** Profile: "SCHEMATIC1-Monte-Carlo"  [ D:\Orcad\lab4\chebishev-pspicefiles\schematic1\monte-carlo.sim ] 


 ****     SMALL SIGNAL BIAS SOLUTION       TEMPERATURE =   27.000 DEG C

                      MONTE CARLO PASS 26

******************************************************************************



 NODE   VOLTAGE     NODE   VOLTAGE     NODE   VOLTAGE     NODE   VOLTAGE


(   V+)   15.0000  (   V-)  -15.0000  (  OUT)-392.7E-06  (N00371)    0.0000     

(N00403)    0.0000 (N00652)-63.57E-06 (N00729)-338.1E-06 (N00884)-5.801E-06     

(N00933)-63.57E-06 (X_U1A.X_LT1013.6)-80.18E-09                                 

(X_U1A.X_LT1013.7)-343.5E-06          (X_U1A.X_LT1013.8)-343.5E-06              

(X_U1A.X_LT1013.9)    0.0000          (X_U1B.X_LT1013.6)-80.10E-09              

(X_U1B.X_LT1013.7)-393.9E-06          (X_U1B.X_LT1013.8)-393.9E-06              

(X_U1B.X_LT1013.9)    0.0000          (X_U1A.X_LT1013.10)     .6151             

(X_U1A.X_LT1013.11)  -14.9470         (X_U1A.X_LT1013.12)  -14.9470             

(X_U1A.X_LT1013.13)     .5880         (X_U1A.X_LT1013.14)     .5880             

(X_U1A.X_LT1013.53)   13.3900         (X_U1A.X_LT1013.54)  -14.3900             

(X_U1A.X_LT1013.90)-67.96E-06         (X_U1A.X_LT1013.91)   25.0000             
[...]

(X_U1B.X_LT1013.101) 5.930E-06        (X_U1B.X_LT1013.102)-57.56E-06            

(X_U1B.X_LT1013.105)  -14.6000        




    VOLTAGE SOURCE CURRENTS
    NAME         CURRENT

    V_V1         6.799E-04
    V_V2        -6.801E-04
    V_V3         0.000E+00
    X_U1A.X_LT1013.VCMC   2.920E-11
    X_U1A.X_LT1013.VB  -8.018E-13
    X_U1A.X_LT1013.VC   1.339E-11
    X_U1A.X_LT1013.VE   1.439E-11
    X_U1A.X_LT1013.VLIM  -6.787E-08
    X_U1A.X_LT1013.VLP  -2.500E-11
    X_U1A.X_LT1013.VLN  -2.500E-11
    X_U1B.X_LT1013.VCMC   2.920E-11
    X_U1B.X_LT1013.VB  -8.010E-13
    X_U1B.X_LT1013.VC   1.339E-11
    X_U1B.X_LT1013.VE   1.439E-11
    X_U1B.X_LT1013.VLIM  -1.502E-08
    X_U1B.X_LT1013.VLP  -2.500E-11
    X_U1B.X_LT1013.VLN  -2.500E-11

    TOTAL POWER DISSIPATION   2.04E-02  WATTS


**** 12/30/20 12:40:34 ******* PSpice Lite (March 2016) ******* ID# 10813 ****

 ** Profile: "SCHEMATIC1-Monte-Carlo"  [ D:\Orcad\lab4\chebishev-pspicefiles\schematic1\monte-carlo.sim ] 


 ****     SMALL SIGNAL BIAS SOLUTION       TEMPERATURE =   27.000 DEG C

                      MONTE CARLO PASS 99

******************************************************************************



 NODE   VOLTAGE     NODE   VOLTAGE     NODE   VOLTAGE     NODE   VOLTAGE


(   V+)   15.0000  (   V-)  -15.0000  (  OUT)-392.8E-06  (N00371)    0.0000     

(N00403)    0.0000 (N00652)-63.57E-06 (N00729)-336.6E-06 (N00884)-5.748E-06     

(N00933)-63.57E-06 (X_U1A.X_LT1013.6)-80.19E-09                                 

(X_U1A.X_LT1013.7)-341.9E-06          (X_U1A.X_LT1013.8)-341.9E-06              

(X_U1A.X_LT1013.9)    0.0000          (X_U1B.X_LT1013.6)-80.10E-09              

(X_U1B.X_LT1013.7)-394.0E-06          (X_U1B.X_LT1013.8)-394.0E-06              

(X_U1B.X_LT1013.9)    0.0000          (X_U1A.X_LT1013.10)     .6151             

(X_U1A.X_LT1013.11)  -14.9470         (X_U1A.X_LT1013.12)  -14.9470             

(X_U1A.X_LT1013.13)     .5880         (X_U1A.X_LT1013.14)     .5880             

(X_U1A.X_LT1013.53)   13.3900         (X_U1A.X_LT1013.54)  -14.3900             

(X_U1A.X_LT1013.90)-67.16E-06         (X_U1A.X_LT1013.91)   25.0000             

(X_U1A.X_LT1013.92)  -25.0000         (X_U1A.X_LT1013.99)    0.0000             

(X_U1B.X_LT1013.10)     .6151         (X_U1B.X_LT1013.11)  -14.9470             

(X_U1B.X_LT1013.12)  -14.9470         (X_U1B.X_LT1013.13)     .5880             

(X_U1B.X_LT1013.14)     .5880         (X_U1B.X_LT1013.53)   13.3900             

(X_U1B.X_LT1013.54)  -14.3900         (X_U1B.X_LT1013.90)-15.02E-06             

(X_U1B.X_LT1013.91)   25.0000         (X_U1B.X_LT1013.92)  -25.0000             

(X_U1B.X_LT1013.99)    0.0000         (X_U1A.X_LT1013.101) 5.930E-06            

(X_U1A.X_LT1013.102)-57.56E-06        (X_U1A.X_LT1013.105)  -14.6000            

(X_U1B.X_LT1013.101) 5.930E-06        (X_U1B.X_LT1013.102)-57.56E-06            

(X_U1B.X_LT1013.105)  -14.6000        




    VOLTAGE SOURCE CURRENTS
    NAME         CURRENT

    V_V1         6.799E-04
    V_V2        -6.801E-04
    V_V3         0.000E+00
    X_U1A.X_LT1013.VCMC   2.920E-11
    X_U1A.X_LT1013.VB  -8.019E-13
    X_U1A.X_LT1013.VC   1.339E-11
    X_U1A.X_LT1013.VE   1.439E-11
    X_U1A.X_LT1013.VLIM  -6.716E-08
    X_U1A.X_LT1013.VLP  -2.500E-11
    X_U1A.X_LT1013.VLN  -2.500E-11
    X_U1B.X_LT1013.VCMC   2.920E-11
    X_U1B.X_LT1013.VB  -8.010E-13
    X_U1B.X_LT1013.VC   1.339E-11
    X_U1B.X_LT1013.VE   1.439E-11
    X_U1B.X_LT1013.VLIM  -1.502E-08
    X_U1B.X_LT1013.VLP  -2.500E-11
    X_U1B.X_LT1013.VLN  -2.500E-11

    TOTAL POWER DISSIPATION   2.04E-02  WATTS


**** 12/30/20 12:40:34 ******* PSpice Lite (March 2016) ******* ID# 10813 ****

 ** Profile: "SCHEMATIC1-Monte-Carlo"  [ D:\Orcad\lab4\chebishev-pspicefiles\schematic1\monte-carlo.sim ] 


 ****     SMALL SIGNAL BIAS SOLUTION       TEMPERATURE =   27.000 DEG C

                      MONTE CARLO PASS 100

******************************************************************************



 NODE   VOLTAGE     NODE   VOLTAGE     NODE   VOLTAGE     NODE   VOLTAGE


(   V+)   15.0000  (   V-)  -15.0000  (  OUT)-396.4E-06  (N00371)    0.0000     

(N00403)    0.0000 (N00652)-63.57E-06 (N00729)-337.2E-06 (N00884)-5.711E-06     

(N00933)-63.57E-06 (X_U1A.X_LT1013.6)-80.19E-09                                 

(X_U1A.X_LT1013.7)-342.6E-06          (X_U1A.X_LT1013.8)-342.6E-06              

(X_U1A.X_LT1013.9)    0.0000          (X_U1B.X_LT1013.6)-80.10E-09              

(X_U1B.X_LT1013.7)-397.6E-06          (X_U1B.X_LT1013.8)-397.6E-06              

(X_U1B.X_LT1013.9)    0.0000          (X_U1A.X_LT1013.10)     .6151             

(X_U1A.X_LT1013.11)  -14.9470         (X_U1A.X_LT1013.12)  -14.9470             

(X_U1A.X_LT1013.13)     .5880         (X_U1A.X_LT1013.14)     .5880             

(X_U1A.X_LT1013.53)   13.3900         (X_U1A.X_LT1013.54)  -14.3900             

(X_U1A.X_LT1013.90)-67.23E-06         (X_U1A.X_LT1013.91)   25.0000             

(X_U1A.X_LT1013.92)  -25.0000         (X_U1A.X_LT1013.99)    0.0000             

(X_U1B.X_LT1013.10)     .6151         (X_U1B.X_LT1013.11)  -14.9470             

(X_U1B.X_LT1013.12)  -14.9470         (X_U1B.X_LT1013.13)     .5880             

(X_U1B.X_LT1013.14)     .5880         (X_U1B.X_LT1013.53)   13.3900             

(X_U1B.X_LT1013.54)  -14.3900         (X_U1B.X_LT1013.90)-15.02E-06             

(X_U1B.X_LT1013.91)   25.0000         (X_U1B.X_LT1013.92)  -25.0000             

(X_U1B.X_LT1013.99)    0.0000         (X_U1A.X_LT1013.101) 5.930E-06            

(X_U1A.X_LT1013.102)-57.56E-06        (X_U1A.X_LT1013.105)  -14.6000            

(X_U1B.X_LT1013.101) 5.930E-06        (X_U1B.X_LT1013.102)-57.56E-06            

(X_U1B.X_LT1013.105)  -14.6000        




    VOLTAGE SOURCE CURRENTS
    NAME         CURRENT

    V_V1         6.799E-04
    V_V2        -6.801E-04
    V_V3         0.000E+00
    X_U1A.X_LT1013.VCMC   2.920E-11
    X_U1A.X_LT1013.VB  -8.019E-13
    X_U1A.X_LT1013.VC   1.339E-11
    X_U1A.X_LT1013.VE   1.439E-11
    X_U1A.X_LT1013.VLIM  -6.723E-08
    X_U1A.X_LT1013.VLP  -2.500E-11
    X_U1A.X_LT1013.VLN  -2.500E-11
    X_U1B.X_LT1013.VCMC   2.920E-11
    X_U1B.X_LT1013.VB  -8.010E-13
    X_U1B.X_LT1013.VC   1.339E-11
    X_U1B.X_LT1013.VE   1.439E-11
    X_U1B.X_LT1013.VLIM  -1.502E-08
    X_U1B.X_LT1013.VLP  -2.500E-11
    X_U1B.X_LT1013.VLN  -2.500E-11

    TOTAL POWER DISSIPATION   2.04E-02  WATTS


**** 12/30/20 12:40:34 ******* PSpice Lite (March 2016) ******* ID# 10813 ****

 ** Profile: "SCHEMATIC1-Monte-Carlo"  [ D:\Orcad\lab4\chebishev-pspicefiles\schematic1\monte-carlo.sim ] 


 ****     SORTED DEVIATIONS OF V(OUT)      TEMPERATURE =   27.000 DEG C

                      MONTE CARLO SUMMARY

******************************************************************************





Mean Deviation =     .0276
Sigma          =     .2489

 RUN                    MAX DEVIATION FROM NOMINAL

Pass   87                .6753  (2.71 sigma)  higher  at F =   10.0000E+03
                        ( 167.5 % of Nominal)

Pass   58                .6287  (2.53 sigma)  higher  at F =   10.0000E+03
                        ( 162.85% of Nominal)

Pass   14                .5433  (2.18 sigma)  higher  at F =   10.0000E+03
                        ( 154.32% of Nominal)

Pass   17                .523   (2.10 sigma)  higher  at F =   10.0000E+03
                        ( 152.28% of Nominal)

Pass   22                .4973  (2.00 sigma)  higher  at F =   10.0000E+03
                        ( 149.72% of Nominal)

Pass   77                .4565  (1.83 sigma)  higher  at F =   10.0000E+03
                        ( 145.63% of Nominal)

Pass   74                .4174  (1.68 sigma)  higher  at F =   10.0000E+03
                        ( 141.73% of Nominal)

Pass   23                .4061  (1.63 sigma)  higher  at F =   10.0000E+03
                        ( 140.6 % of Nominal)

Pass   83                .3976  (1.60 sigma)  lower  at F =   10.4710E+03
                        (  62.336% of Nominal)

Pass   38                .3894  (1.56 sigma)  higher  at F =   10.0000E+03
                        ( 138.93% of Nominal)

Pass   63                .389   (1.56 sigma)  lower  at F =   10.4710E+03
                        (  63.15 % of Nominal)

Pass   45                .3743  (1.50 sigma)  higher  at F =   10.0000E+03
                        ( 137.42% of Nominal)

Pass   24                .3656  (1.47 sigma)  lower  at F =    9.5499E+03
                        (  64.784% of Nominal)

Pass  100                .3564  (1.43 sigma)  higher  at F =   10.0000E+03
                        ( 135.63% of Nominal)

Pass   25                .3517  (1.41 sigma)  higher  at F =   10.0000E+03
                        ( 135.16% of Nominal)

Pass   48                .3513  (1.41 sigma)  higher  at F =   10.0000E+03
                        ( 135.12% of Nominal)

Pass   35                .3277  (1.32 sigma)  higher  at F =   10.0000E+03
                        ( 132.76% of Nominal)

Pass   95                .3261  (1.31 sigma)  lower  at F =   10.4710E+03
                        (  69.105% of Nominal)

Pass   34                .3005  (1.21 sigma)  higher  at F =   10.0000E+03
                        ( 130.04% of Nominal)

Pass   53                .2987  (1.20 sigma)  lower  at F =   10.4710E+03
                        (  71.698% of Nominal)

Pass   88                .2939  (1.18 sigma)  lower  at F =   10.4710E+03
                        (  72.154% of Nominal)

Pass   36                .2907  (1.17 sigma)  higher  at F =   10.0000E+03
                        ( 129.06% of Nominal)

Pass   20                .2846  (1.14 sigma)  lower  at F =   10.9650E+03
                        (  68.722% of Nominal)

Pass   16                .2828  (1.14 sigma)  lower  at F =    9.5499E+03
                        (  72.759% of Nominal)

Pass    3                .2812  (1.13 sigma)  higher  at F =   10.0000E+03
                        ( 128.11% of Nominal)

Pass   80                .2763  (1.11 sigma)  higher  at F =   10.0000E+03
                        ( 127.63% of Nominal)

Pass   28                .2708  (1.09 sigma)  lower  at F =    9.5499E+03
                        (  73.912% of Nominal)

Pass   86                .2695  (1.08 sigma)  lower  at F =    9.5499E+03
                        (  74.045% of Nominal)

Pass   37                .2676  (1.08 sigma)  lower  at F =   10.9650E+03
                        (  70.588% of Nominal)

Pass   52                .2604  (1.05 sigma)  higher  at F =   10.0000E+03
                        ( 126.03% of Nominal)

Pass   56                .2595  (1.04 sigma)  lower  at F =   10.4710E+03
                        (  75.412% of Nominal)

Pass   81                .2595  (1.04 sigma)  lower  at F =    9.1201E+03
                        (  71.246% of Nominal)

Pass   40                .2583  (1.04 sigma)  lower  at F =   10.0000E+03
                        (  74.18 % of Nominal)

Pass   70                .2505  (1.01 sigma)  lower  at F =   10.0000E+03
                        (  74.954% of Nominal)

Pass    9                .2503  (1.01 sigma)  higher  at F =   10.0000E+03
                        ( 125.02% of Nominal)

Pass   89                .246   ( .99 sigma)  lower  at F =   10.4710E+03
                        (  76.695% of Nominal)

Pass   75                .2384  ( .96 sigma)  lower  at F =   10.4710E+03
                        (  77.411% of Nominal)

Pass   76                .2373  ( .95 sigma)  higher  at F =   10.0000E+03
                        ( 123.72% of Nominal)

Pass   84                .2319  ( .93 sigma)  higher  at F =   10.0000E+03
                        ( 123.18% of Nominal)

Pass   69                .2307  ( .93 sigma)  lower  at F =   10.0000E+03
                        (  76.933% of Nominal)

Pass   44                .2165  ( .87 sigma)  lower  at F =    9.1201E+03
                        (  76.007% of Nominal)

Pass   82                .2148  ( .86 sigma)  higher  at F =    8.7096E+03
                        ( 140.75% of Nominal)

Pass   46                .2147  ( .86 sigma)  higher  at F =    8.7096E+03
                        ( 140.74% of Nominal)

Pass   96                .2137  ( .86 sigma)  lower  at F =   10.4710E+03
                        (  79.758% of Nominal)

Pass   65                .2103  ( .85 sigma)  higher  at F =   10.9650E+03
                        ( 123.12% of Nominal)

Pass   15                .204   ( .82 sigma)  lower  at F =   10.9650E+03
                        (  77.577% of Nominal)

Pass    4                .1971  ( .79 sigma)  lower  at F =    9.1201E+03
                        (  78.156% of Nominal)

Pass   31                .1938  ( .78 sigma)  higher  at F =    8.7096E+03
                        ( 136.77% of Nominal)

Pass   93                .1845  ( .74 sigma)  higher  at F =   10.0000E+03
                        ( 118.44% of Nominal)

Pass    6                .1802  ( .72 sigma)  lower  at F =    9.5499E+03
                        (  82.638% of Nominal)

Pass   79                .1789  ( .72 sigma)  higher  at F =   10.0000E+03
                        ( 117.88% of Nominal)

Pass   26                .1774  ( .71 sigma)  lower  at F =    9.1201E+03
                        (  80.339% of Nominal)

Pass   57                .1768  ( .71 sigma)  higher  at F =    8.7096E+03
                        ( 133.55% of Nominal)

Pass   30                .1712  ( .69 sigma)  lower  at F =   10.4710E+03
                        (  83.779% of Nominal)

Pass   41                .1648  ( .66 sigma)  higher  at F =   10.0000E+03
                        ( 116.48% of Nominal)

Pass   10                .1639  ( .66 sigma)  lower  at F =   10.9650E+03
                        (  81.991% of Nominal)

Pass   11                .1585  ( .64 sigma)  lower  at F =    9.1201E+03
                        (  82.433% of Nominal)

Pass   21                .1577  ( .63 sigma)  higher  at F =   10.0000E+03
                        ( 115.76% of Nominal)

Pass   51                .1571  ( .63 sigma)  higher  at F =    8.7096E+03
                        ( 129.8 % of Nominal)

Pass   43                .1515  ( .61 sigma)  higher  at F =   10.0000E+03
                        ( 115.15% of Nominal)

Pass   94                .1503  ( .60 sigma)  lower  at F =   10.4710E+03
                        (  85.758% of Nominal)

Pass   13                .1485  ( .60 sigma)  lower  at F =   10.0000E+03
                        (  85.159% of Nominal)

Pass   64                .147   ( .59 sigma)  lower  at F =   10.9650E+03
                        (  83.843% of Nominal)

Pass   32                .1405  ( .56 sigma)  lower  at F =    9.1201E+03
                        (  84.434% of Nominal)

Pass   60                .1391  ( .56 sigma)  higher  at F =   11.4820E+03
                        ( 126.65% of Nominal)

Pass   92                .139   ( .56 sigma)  lower  at F =   10.0000E+03
                        (  86.1  % of Nominal)

Pass   49                .1387  ( .56 sigma)  lower  at F =    9.1201E+03
                        (  84.635% of Nominal)

Pass   73                .1382  ( .56 sigma)  higher  at F =   10.0000E+03
                        ( 113.82% of Nominal)

Pass   18                .1378  ( .55 sigma)  lower  at F =   10.9650E+03
                        (  84.859% of Nominal)

Pass   98                .1347  ( .54 sigma)  higher  at F =   10.0000E+03
                        ( 113.46% of Nominal)

Pass   62                .1341  ( .54 sigma)  higher  at F =    8.7096E+03
                        ( 125.44% of Nominal)

Pass   66                .13    ( .52 sigma)  lower  at F =   10.9650E+03
                        (  85.712% of Nominal)

Pass   33                .1299  ( .52 sigma)  higher  at F =   10.9650E+03
                        ( 114.28% of Nominal)

Pass    8                .1275  ( .51 sigma)  higher  at F =   10.0000E+03
                        ( 112.75% of Nominal)

Pass    2                .1256  ( .50 sigma)  lower  at F =    9.5499E+03
                        (  87.905% of Nominal)

Pass   71                .1238  ( .50 sigma)  lower  at F =    9.1201E+03
                        (  86.287% of Nominal)

Pass   19                .1155  ( .46 sigma)  lower  at F =    9.5499E+03
                        (  88.877% of Nominal)

Pass   97                .1133  ( .46 sigma)  lower  at F =   10.4710E+03
                        (  89.267% of Nominal)

Pass   47                .1124  ( .45 sigma)  higher  at F =   11.4820E+03
                        ( 121.53% of Nominal)

Pass   42                .098   ( .39 sigma)  higher  at F =    9.1201E+03
                        ( 110.86% of Nominal)

Pass   61                .0936  ( .38 sigma)  higher  at F =    9.1201E+03
                        ( 110.38% of Nominal)

Pass   91                .0931  ( .37 sigma)  lower  at F =   10.9650E+03
                        (  89.77 % of Nominal)

Pass   39                .0863  ( .35 sigma)  lower  at F =   10.9650E+03
                        (  90.52 % of Nominal)

Pass   59                .0811  ( .33 sigma)  lower  at F =   10.0000E+03
                        (  91.89 % of Nominal)

Pass   29                .0743  ( .30 sigma)  lower  at F =    9.1201E+03
                        (  91.762% of Nominal)

Pass   50                .0728  ( .29 sigma)  lower  at F =   10.9650E+03
                        (  92.003% of Nominal)

Pass   78                .0714  ( .29 sigma)  higher  at F =   10.0000E+03
                        ( 107.13% of Nominal)

Pass    5                .0699  ( .28 sigma)  lower  at F =   10.0000E+03
                        (  93.008% of Nominal)

Pass   90                .067   ( .27 sigma)  higher  at F =    9.1201E+03
                        ( 107.43% of Nominal)

Pass   55                .0549  ( .22 sigma)  lower  at F =   10.0000E+03
                        (  94.513% of Nominal)

Pass   72                .054   ( .22 sigma)  higher  at F =   10.9650E+03
                        ( 105.94% of Nominal)

Pass   27                .0494  ( .20 sigma)  higher  at F =    9.1201E+03
                        ( 105.48% of Nominal)

Pass   54                .0489  ( .20 sigma)  lower  at F =   10.0000E+03
                        (  95.114% of Nominal)

Pass   68                .0481  ( .19 sigma)  lower  at F =   10.0000E+03
                        (  95.191% of Nominal)

Pass    7                .0477  ( .19 sigma)  lower  at F =   10.4710E+03
                        (  95.485% of Nominal)

Pass   99                .0404  ( .16 sigma)  higher  at F =   10.0000E+03
                        ( 104.04% of Nominal)

Pass   12                .0243  ( .10 sigma)  higher  at F =    9.5499E+03
                        ( 102.34% of Nominal)

Pass   85                .0218  ( .09 sigma)  higher  at F =   10.4710E+03
                        ( 102.06% of Nominal)

Pass   67                .0207  ( .08 sigma)  higher  at F =    9.5499E+03
                        ( 102   % of Nominal)



          JOB CONCLUDED

**** 12/30/20 12:40:34 ******* PSpice Lite (March 2016) ******* ID# 10813 ****

 ** Profile: "SCHEMATIC1-Monte-Carlo"  [ D:\Orcad\lab4\chebishev-pspicefiles\schematic1\monte-carlo.sim ] 


 ****     JOB STATISTICS SUMMARY


******************************************************************************



  Total job time (using Solver 1)   =        2.45
