
**** 12/02/20 13:13:28 ******* PSpice Lite (March 2016) ******* ID# 10813 ****

 ** Profile: "SCHEMATIC1-RC_AC_Swepp"  [ D:\Orcad\lab3\rc-pspicefiles\schematic1\rc_ac_swepp.sim ] 


 ****     CIRCUIT DESCRIPTION


******************************************************************************




** Creating circuit file "RC_AC_Swepp.cir" 
** WARNING: THIS AUTOMATICALLY GENERATED FILE MAY BE OVERWRITTEN BY SUBSEQUENT SIMULATIONS

*Libraries: 
* Profile Libraries :
* Local Libraries :
.STMLIB "../../../RC-PSpiceFiles/RC.stl" 
* From [PSPICE NETLIST] section of C:\Users\bohda\AppData\Roaming\SPB_Data\cdssetup\OrCAD_PSpice\17.2.0\PSpice.ini file:
.lib "nomd.lib" 

*Analysis directives: 
.AC DEC 11 10 10Meg
.OPTIONS ADVCONV
.PROBE64 V(alias(*)) I(alias(*)) W(alias(*)) D(alias(*)) NOISE(alias(*)) 
.INC "..\SCHEMATIC1.net" 



**** INCLUDING SCHEMATIC1.net ****
* source RC
C_C1         0 OUT  1n  TC=0,0 
R_R1         IN OUT  1k TC=0,0 
V_V1         IN N00223 DC 0Vdc AC 1V 
V_V2         N00223 0   STIMULUS=sinRC

**** RESUMING RC_AC_Swepp.cir ****
.END
* C:\Projects_ORCAD\lab3\RC-PSpiceFiles\RC.stl written on Tue Nov 10 20:29:33 2020
* by Stimulus Editor -- Lite Version 17.2.0
;!Stimulus Get
;! sinRC Analog
;!Ok
;!Plot Axis_Settings
;!Xrange 0s 3ms
;!Yrange -10 10
;!AutoUniverse
;!XminRes 1ns
;!YminRes 1n
;!Ok
.STIMULUS sinRC SIN( 0 10 1K 0 0 0 )

**** 12/02/20 13:13:28 ******* PSpice Lite (March 2016) ******* ID# 10813 ****

 ** Profile: "SCHEMATIC1-RC_AC_Swepp"  [ D:\Orcad\lab3\rc-pspicefiles\schematic1\rc_ac_swepp.sim ] 


 ****     SMALL SIGNAL BIAS SOLUTION       TEMPERATURE =   27.000 DEG C


******************************************************************************



 NODE   VOLTAGE     NODE   VOLTAGE     NODE   VOLTAGE     NODE   VOLTAGE


(   IN)    0.0000  (  OUT)    0.0000  (N00223)    0.0000 




    VOLTAGE SOURCE CURRENTS
    NAME         CURRENT

    V_V1         0.000E+00
    V_V2         0.000E+00

    TOTAL POWER DISSIPATION   0.00E+00  WATTS



          JOB CONCLUDED

**** 12/02/20 13:13:28 ******* PSpice Lite (March 2016) ******* ID# 10813 ****

 ** Profile: "SCHEMATIC1-RC_AC_Swepp"  [ D:\Orcad\lab3\rc-pspicefiles\schematic1\rc_ac_swepp.sim ] 


 ****     JOB STATISTICS SUMMARY


******************************************************************************



  Total job time (using Solver 1)   =         .03
