
**** 12/02/20 10:47:15 ******* PSpice Lite (March 2016) ******* ID# 10813 ****

 ** Profile: "SCHEMATIC1-ACsweep"  [ D:\Orcad\lab3\zavd2\zavd2-pspicefiles\schematic1\acsweep.sim ] 


 ****     CIRCUIT DESCRIPTION


******************************************************************************




** Creating circuit file "ACsweep.cir" 
** WARNING: THIS AUTOMATICALLY GENERATED FILE MAY BE OVERWRITTEN BY SUBSEQUENT SIMULATIONS

*Libraries: 
* Profile Libraries :
* Local Libraries :
.STMLIB "../../../zavd2-PSpiceFiles/ZAVD2.stl" 
* From [PSPICE NETLIST] section of C:\Users\bohda\AppData\Roaming\SPB_Data\cdssetup\OrCAD_PSpice\17.2.0\PSpice.ini file:
.lib "nomd.lib" 

*Analysis directives: 
.AC DEC 11 10 1Meg
.OPTIONS ADVCONV
.PROBE64 V(alias(*)) I(alias(*)) W(alias(*)) D(alias(*)) NOISE(alias(*)) 
.INC "..\SCHEMATIC1.net" 



**** INCLUDING SCHEMATIC1.net ****
* source ZAVD2
C_C1         0 OUT  1n  TC=0,0 
R_R1         IN OUT  1k TC=0,0 
V_V2         N00316 0   STIMULUS=SIN
V_V1         IN N00316 DC 0Vdc AC 1V 

**** RESUMING ACsweep.cir ****
.END
* D:\Orcad\lab3\zavd2\zavd2-PSpiceFiles\ZAVD2.stl written on Tue Nov 24 13:23:21 2020
* by Stimulus Editor -- Lite Version 17.2.0
;!Stimulus Get
;! SIN Analog
;!Ok
;!Plot Axis_Settings
;!Xrange 0s 3ms
;!Yrange -10 10
;!AutoUniverse
;!XminRes 1ns
;!YminRes 1n
;!Ok
.STIMULUS SIN SIN( 0 10 1KHz 0 0 0 )

**** 12/02/20 10:47:15 ******* PSpice Lite (March 2016) ******* ID# 10813 ****

 ** Profile: "SCHEMATIC1-ACsweep"  [ D:\Orcad\lab3\zavd2\zavd2-pspicefiles\schematic1\acsweep.sim ] 


 ****     SMALL SIGNAL BIAS SOLUTION       TEMPERATURE =   27.000 DEG C


******************************************************************************



 NODE   VOLTAGE     NODE   VOLTAGE     NODE   VOLTAGE     NODE   VOLTAGE


(   IN)    0.0000  (  OUT)    0.0000  (N00316)    0.0000 




    VOLTAGE SOURCE CURRENTS
    NAME         CURRENT

    V_V2         0.000E+00
    V_V1         0.000E+00

    TOTAL POWER DISSIPATION   0.00E+00  WATTS



          JOB CONCLUDED

**** 12/02/20 10:47:15 ******* PSpice Lite (March 2016) ******* ID# 10813 ****

 ** Profile: "SCHEMATIC1-ACsweep"  [ D:\Orcad\lab3\zavd2\zavd2-pspicefiles\schematic1\acsweep.sim ] 


 ****     JOB STATISTICS SUMMARY


******************************************************************************



  Total job time (using Solver 1)   =         .02
